REMARK  2 active torsions:
REMARK  status: ('A' for Active; 'I' for Inactive)
REMARK    1  A    between atoms: O_11  and  C_12 
REMARK    2  A    between atoms: O_11  and  C_13 
ROOT
ATOM      1  O   UNL d   1      -0.001   0.000   1.510  0.00  0.00    -0.305 OA
ENDROOT
BRANCH   1   2
ATOM      2  C   UNL d   1       1.172   0.144   0.793  0.00  0.00     0.113 A 
ATOM      3  C   UNL d   1       2.189  -0.785   0.955  0.00  0.00     0.065 A 
ATOM      4 BR   UNL d   1       1.902  -2.229   2.180  0.00  0.00    -0.046 Br
ATOM      5  C   UNL d   1       3.374  -0.638   0.233  0.00  0.00     0.050 A 
ATOM      6 BR   UNL d   1       4.783  -1.926   0.463  0.00  0.00    -0.048 Br
ATOM      7  C   UNL d   1       3.528   0.436  -0.643  0.00  0.00     0.048 A 
ATOM      8 BR   UNL d   1       5.164   0.640  -1.637  0.00  0.00    -0.048 Br
ATOM      9  C   UNL d   1       2.498   1.363  -0.797  0.00  0.00     0.050 A 
ATOM     10 BR   UNL d   1       2.690   2.851  -2.000  0.00  0.00    -0.048 Br
ATOM     11  C   UNL d   1       1.313   1.217  -0.075  0.00  0.00     0.065 A 
ATOM     12 BR   UNL d   1      -0.146   2.446  -0.232  0.00  0.00    -0.046 Br
ENDBRANCH   1   2
BRANCH   1  13
ATOM     13  C   UNL d   1      -1.160  -0.142   0.801  0.00  0.00     0.113 A 
ATOM     14  C   UNL d   1      -2.191   0.785   0.955  0.00  0.00     0.065 A 
ATOM     15 BR   UNL d   1      -1.903   2.229   2.180  0.00  0.00    -0.046 Br
ATOM     16  C   UNL d   1      -3.375   0.638   0.233  0.00  0.00     0.050 A 
ATOM     17 BR   UNL d   1      -4.784   1.926   0.463  0.00  0.00    -0.048 Br
ATOM     18  C   UNL d   1      -3.529  -0.436  -0.643  0.00  0.00     0.048 A 
ATOM     19 BR   UNL d   1      -5.165  -0.640  -1.637  0.00  0.00    -0.048 Br
ATOM     20  C   UNL d   1      -2.499  -1.363  -0.797  0.00  0.00     0.050 A 
ATOM     21 BR   UNL d   1      -2.691  -2.851  -2.000  0.00  0.00    -0.048 Br
ATOM     22  C   UNL d   1      -1.315  -1.217  -0.075  0.00  0.00     0.065 A 
ATOM     23 BR   UNL d   1       0.145  -2.446  -0.232  0.00  0.00    -0.046 Br
ENDBRANCH   1  13
TORSDOF 2
