@<TRIPOS>MOLECULE
14410
 23 24 0 0 0
SMALL
GASTEIGER

@<TRIPOS>ATOM
      1 BR          1.9016   -2.2295    2.1801 Br      1  UNL1       -0.0453
      2 BR         -1.9027    2.2294    2.1801 Br      1  UNL1       -0.0453
      3 BR         -0.1463    2.4462   -0.2320 Br      1  UNL1       -0.0453
      4 BR          0.1453   -2.4464   -0.2319 Br      1  UNL1       -0.0453
      5 BR          2.6901    2.8508   -2.0004 Br      1  UNL1       -0.0479
      6 BR         -2.6912   -2.8509   -2.0004 Br      1  UNL1       -0.0479
      7 BR          4.7831   -1.9262    0.4629 Br      1  UNL1       -0.0479
      8 BR         -4.7843    1.9262    0.4629 Br      1  UNL1       -0.0479
      9 BR          5.1636    0.6399   -1.6372 Br      1  UNL1       -0.0479
     10 BR         -5.1647   -0.6401   -1.6371 Br      1  UNL1       -0.0479
     11 O          -0.0005    0.0000    1.5105 O.3     1  UNL1       -0.4514
     12 C           1.1721    0.1437    0.7933 C.ar    1  UNL1        0.1585
     13 C          -1.1604   -0.1423    0.8010 C.ar    1  UNL1        0.1585
     14 C           2.1895   -0.7854    0.9553 C.ar    1  UNL1        0.0762
     15 C          -2.1906    0.7853    0.9553 C.ar    1  UNL1        0.0762
     16 C           1.3135    1.2166   -0.0750 C.ar    1  UNL1        0.0762
     17 C          -1.3147   -1.2168   -0.0750 C.ar    1  UNL1        0.0762
     18 C           2.4979    1.3633   -0.7970 C.ar    1  UNL1        0.0504
     19 C          -2.4990   -1.3635   -0.7970 C.ar    1  UNL1        0.0504
     20 C           3.3740   -0.6385    0.2334 C.ar    1  UNL1        0.0504
     21 C          -3.3751    0.6384    0.2334 C.ar    1  UNL1        0.0504
     22 C           3.5282    0.4359   -0.6428 C.ar    1  UNL1        0.0481
     23 C          -3.5293   -0.4360   -0.6427 C.ar    1  UNL1        0.0481
@<TRIPOS>BOND
     1     1    14    1
     2     2    15    1
     3     3    16    1
     4     4    17    1
     5     5    18    1
     6     6    19    1
     7     7    20    1
     8     8    21    1
     9     9    22    1
    10    10    23    1
    11    11    12    1
    12    11    13    1
    13    12    14   ar
    14    12    16   ar
    15    13    15   ar
    16    13    17   ar
    17    14    20   ar
    18    15    21   ar
    19    16    18   ar
    20    17    19   ar
    21    18    22   ar
    22    19    23   ar
    23    20    22   ar
    24    21    23   ar
