REMARK  3 active torsions:
REMARK  status: ('A' for Active; 'I' for Inactive)
REMARK    1  A    between atoms: C_11  and  C_12 
REMARK    2  A    between atoms: C_11  and  C_13 
REMARK    3  A    between atoms: C_12  and  C_14 
ROOT
ATOM      1  C   UNL d   1       0.419   0.018  -0.634  0.00  0.00     0.045 C 
ENDROOT
BRANCH   1   2
ATOM      2  C   UNL d   1      -0.422   0.018   0.653  0.00  0.00     0.045 C 
BRANCH   2   3
ATOM      3  C   UNL d   1      -1.909   0.009   0.396  0.00  0.00    -0.020 A 
ATOM      4  C   UNL d   1      -2.582  -1.203   0.282  0.00  0.00     0.037 A 
ATOM      5 BR   UNL d   1      -1.570  -2.823   0.462  0.00  0.00    -0.049 Br
ATOM      6  C   UNL d   1      -3.955  -1.212   0.043  0.00  0.00     0.047 A 
ATOM      7 BR   UNL d   1      -4.877  -2.893  -0.118  0.00  0.00    -0.048 Br
ATOM      8  C   UNL d   1      -4.650  -0.009  -0.082  0.00  0.00     0.048 A 
ATOM      9 BR   UNL d   1      -6.546  -0.021  -0.412  0.00  0.00    -0.048 Br
ATOM     10  C   UNL d   1      -3.969   1.204   0.033  0.00  0.00     0.047 A 
ATOM     11 BR   UNL d   1      -4.912   2.873  -0.133  0.00  0.00    -0.048 Br
ATOM     12  C   UNL d   1      -2.595   1.212   0.272  0.00  0.00     0.037 A 
ATOM     13 BR   UNL d   1      -1.603   2.845   0.439  0.00  0.00    -0.049 Br
ENDBRANCH   2   3
ENDBRANCH   1   2
BRANCH   1  14
ATOM     14  C   UNL d   1       1.900   0.009  -0.388  0.00  0.00    -0.020 A 
ATOM     15  C   UNL d   1       2.581  -1.203  -0.278  0.00  0.00     0.037 A 
ATOM     16 BR   UNL d   1       1.569  -2.823  -0.450  0.00  0.00    -0.049 Br
ATOM     17  C   UNL d   1       3.957  -1.212  -0.047  0.00  0.00     0.047 A 
ATOM     18 BR   UNL d   1       4.880  -2.893   0.108  0.00  0.00    -0.048 Br
ATOM     19  C   UNL d   1       4.652  -0.009   0.073  0.00  0.00     0.048 A 
ATOM     20 BR   UNL d   1       6.551  -0.021   0.391  0.00  0.00    -0.048 Br
ATOM     21  C   UNL d   1       3.971   1.204  -0.037  0.00  0.00     0.047 A 
ATOM     22 BR   UNL d   1       4.914   2.873   0.122  0.00  0.00    -0.048 Br
ATOM     23  C   UNL d   1       2.595   1.212  -0.268  0.00  0.00     0.037 A 
ATOM     24 BR   UNL d   1       1.601   2.845  -0.428  0.00  0.00    -0.049 Br
ENDBRANCH   1  14
TORSDOF 3
