REMARK  2 active torsions:
REMARK  status: ('A' for Active; 'I' for Inactive)
REMARK    1  A    between atoms: O_1  and  C_7 
REMARK    2  A    between atoms: O_2  and  C_20 
ROOT
ATOM      1  C   UNL d   1       2.664   0.584   0.148  0.00  0.00    -0.014 C 
ATOM      2  C   UNL d   1       1.984  -0.695  -0.379  0.00  0.00     0.001 C 
ATOM      3  C   UNL d   1       0.515  -0.780   0.035  0.00  0.00    -0.001 C 
ATOM      4  C   UNL d   1      -0.246   0.436  -0.575  0.00  0.00     0.023 C 
ATOM      5  C   UNL d   1       4.095   0.335  -0.367  0.00  0.00     0.126 C 
ATOM      6  C   UNL d   1       1.955   1.793  -0.475  0.00  0.00     0.013 C 
ATOM      7  C   UNL d   1       2.944  -1.806   0.038  0.00  0.00     0.008 C 
ATOM      8  C   UNL d   1       0.440   1.776  -0.195  0.00  0.00     0.010 C 
ATOM      9  C   UNL d   1       4.337  -1.161  -0.088  0.00  0.00     0.033 C 
ATOM     10  C   UNL d   1      -0.154  -2.073  -0.435  0.00  0.00     0.010 C 
ATOM     11  C   UNL d   1       2.665   0.731   1.691  0.00  0.00     0.018 C 
ATOM     12  C   UNL d   1      -1.740   0.364  -0.267  0.00  0.00    -0.047 A 
ATOM     13  C   UNL d   1      -1.569  -2.159   0.131  0.00  0.00     0.039 C 
ATOM     14  C   UNL d   1      -2.353  -0.874   0.022  0.00  0.00    -0.049 A 
ATOM     15  C   UNL d   1      -2.555   1.506  -0.351  0.00  0.00     0.011 A 
ATOM     16  C   UNL d   1      -3.737  -0.930   0.269  0.00  0.00     0.044 A 
ATOM     17  C   UNL d   1      -3.929   1.436  -0.112  0.00  0.00     0.037 A 
ATOM     18  C   UNL d   1      -4.520   0.219   0.203  0.00  0.00     0.066 A 
ENDROOT
BRANCH   5  19
ATOM     19  O   UNL d   1       5.061   1.150   0.267  0.00  0.00    -0.395 OA
ATOM     20  H   UNL d   1       5.936   0.868  -0.052  0.00  0.00     0.210 HD
ENDBRANCH   5  19
BRANCH  18  21
ATOM     21  O   UNL d   1      -5.857   0.148   0.439  0.00  0.00    -0.361 OA
ATOM     22  H   UNL d   1      -6.241   1.038   0.349  0.00  0.00     0.217 HD
ENDBRANCH  18  21
TORSDOF 2
