REMARK  8 active torsions:
REMARK  status: ('A' for Active; 'I' for Inactive)
REMARK    1  A    between atoms: O_4  and  C_14 
REMARK    2  A    between atoms: O_4  and  C_18 
REMARK    3  A    between atoms: O_5  and  C_17 
REMARK    4  A    between atoms: O_7  and  C_23 
REMARK    5  A    between atoms: N_8  and  CA_10 
REMARK    6  A    between atoms: C_9  and  CA_10 
REMARK    7  A    between atoms: C_9  and  C_11 
REMARK    8  A    between atoms: CA_10  and  C_17 
ROOT
ATOM      1  I   UNL d   1       0.379  -0.695  -3.265  0.00  0.00    -0.042 I 
ATOM      2  I   UNL d   1       0.932  -2.572   2.516  0.00  0.00    -0.042 I 
ATOM      3  C   UNL d   1      -2.323  -1.094   0.085  0.00  0.00    -0.053 A 
ATOM      4  C   UNL d   1      -1.554  -1.585   1.128  0.00  0.00     0.028 A 
ATOM      5  C   UNL d   1      -1.773  -0.842  -1.161  0.00  0.00     0.028 A 
ATOM      6  C   UNL d   1       0.372  -1.581  -0.331  0.00  0.00     0.109 A 
ATOM      7  C   UNL d   1      -0.416  -1.087  -1.370  0.00  0.00     0.042 A 
ATOM      8  C   UNL d   1      -0.197  -1.830   0.918  0.00  0.00     0.042 A 
ENDROOT
BRANCH   6   9
ATOM      9  O   UNL d   1       1.701  -1.822  -0.536  0.00  0.00    -0.308 OA
BRANCH   9  10
ATOM     10  C   UNL d   1       2.584  -0.788  -0.284  0.00  0.00     0.077 A 
ATOM     11  C   UNL d   1       2.093   0.428   0.159  0.00  0.00     0.058 A 
ATOM     12  C   UNL d   1       2.984   1.470   0.413  0.00  0.00     0.042 A 
ATOM     13  I   UNL d   1       2.219   3.297   1.080  0.00  0.00    -0.042 I 
ATOM     14  C   UNL d   1       4.353   1.280   0.220  0.00  0.00     0.082 A 
ATOM     15  C   UNL d   1       4.830   0.048  -0.226  0.00  0.00     0.040 A 
ATOM     16  C   UNL d   1       3.938  -0.994  -0.480  0.00  0.00     0.040 A 
BRANCH  14  17
ATOM     17  O   UNL d   1       5.257   2.273   0.457  0.00  0.00    -0.359 OA
ATOM     18  H   UNL d   1       6.152   1.945   0.265  0.00  0.00     0.217 HD
ENDBRANCH  14  17
ENDBRANCH   9  10
ENDBRANCH   6   9
BRANCH   3  19
ATOM     19  C   UNL d   1      -3.793  -0.829   0.312  0.00  0.00     0.085 C 
BRANCH  19  20
ATOM     20  CA  UNL d   1      -4.074   0.600   0.802  0.00  0.00     0.318 C 
BRANCH  20  21
ATOM     21  N   UNL d   1      -5.384   0.653   1.447  0.00  0.00     0.093 N 
ATOM     22  H1  UNL d   1      -5.394   0.030   2.253  0.00  0.00     0.314 HD
ATOM     23  H2  UNL d   1      -6.097   0.295   0.811  0.00  0.00     0.314 HD
ENDBRANCH  20  21
BRANCH  20  24
ATOM     24  C   UNL d   1      -4.111   1.599  -0.341  0.00  0.00     0.174 C 
ATOM     25  OXT UNL d   1      -5.109   1.881  -0.992  0.00  0.00    -0.648 OA
BRANCH  24  26
ATOM     26  O   UNL d   1      -2.905   2.189  -0.551  0.00  0.00    -0.775 OA
ATOM     27  H   UNL d   1      -2.941   2.842  -1.282  0.00  0.00     0.167 HD
ENDBRANCH  24  26
ENDBRANCH  20  24
ENDBRANCH  19  20
ENDBRANCH   3  19
TORSDOF 8
