REMARK  12 active torsions:
REMARK  status: ('A' for Active; 'I' for Inactive)
REMARK    1  A    between atoms: P_4  and  O_5 
REMARK    2  A    between atoms: P_4  and  O_6 
REMARK    3  A    between atoms: P_4  and  O_7 
REMARK    4  A    between atoms: O_5  and  C_9 
REMARK    5  A    between atoms: O_6  and  C_10 
REMARK    6  A    between atoms: O_7  and  C_11 
REMARK    7  A    between atoms: C_9  and  C_12 
REMARK    8  A    between atoms: C_10  and  C_13 
REMARK    9  A    between atoms: C_11  and  C_14 
REMARK   10  A    between atoms: C_12  and  C_15 
REMARK   11  A    between atoms: C_13  and  C_16 
REMARK   12  A    between atoms: C_14  and  C_17 
ROOT
ATOM      1  P   UNL d   1       0.315   1.033   0.518  0.00  0.00     0.477 P 
ATOM      2  O   UNL d   1       0.567   2.059   1.586  0.00  0.00    -0.227 OA
ENDROOT
BRANCH   1   3
ATOM      3  O   UNL d   1      -0.001  -0.454   1.081  0.00  0.00    -0.292 OA
BRANCH   3   4
ATOM      4  C   UNL d   1      -0.258  -1.517   0.178  0.00  0.00     0.181 C 
BRANCH   4   5
ATOM      5  C   UNL d   1      -0.520  -2.786   0.980  0.00  0.00     0.042 C 
BRANCH   5   6
ATOM      6  C   UNL d   1      -0.789  -4.009   0.114  0.00  0.00     0.116 C 
ATOM      7 CL   UNL d   1      -2.226  -3.797  -0.912  0.00  0.00    -0.130 Cl
ENDBRANCH   5   6
ENDBRANCH   4   5
ENDBRANCH   3   4
ENDBRANCH   1   3
BRANCH   1   8
ATOM      8  O   UNL d   1       1.542   0.821  -0.518  0.00  0.00    -0.292 OA
BRANCH   8   9
ATOM      9  C   UNL d   1       2.793   0.397  -0.005  0.00  0.00     0.181 C 
BRANCH   9  10
ATOM     10  C   UNL d   1       3.778   0.270  -1.161  0.00  0.00     0.042 C 
BRANCH  10  11
ATOM     11  C   UNL d   1       5.162  -0.203  -0.735  0.00  0.00     0.116 C 
ATOM     12 CL   UNL d   1       5.926   0.921   0.412  0.00  0.00    -0.130 Cl
ENDBRANCH  10  11
ENDBRANCH   9  10
ENDBRANCH   8   9
ENDBRANCH   1   8
BRANCH   1  13
ATOM     13  O   UNL d   1      -0.932   1.369  -0.460  0.00  0.00    -0.292 OA
BRANCH  13  14
ATOM     14  C   UNL d   1      -2.221   1.508   0.113  0.00  0.00     0.181 C 
BRANCH  14  15
ATOM     15  C   UNL d   1      -3.218   1.819  -0.996  0.00  0.00     0.042 C 
BRANCH  15  16
ATOM     16  C   UNL d   1      -4.644   2.013  -0.498  0.00  0.00     0.116 C 
ATOM     17 CL   UNL d   1      -5.274   0.555   0.302  0.00  0.00    -0.130 Cl
ENDBRANCH  15  16
ENDBRANCH  14  15
ENDBRANCH  13  14
ENDBRANCH   1  13
TORSDOF 12
