2765122
  -OEChem-08072406343D

 53 55  0     0  0  0  0  0  0999 V2000
   -3.7673   -3.4656   -1.1618 F   0  0  0  0  0  0  0  0  0  0  0  0
   -5.5220   -4.4602   -0.3644 F   0  0  0  0  0  0  0  0  0  0  0  0
   -4.0087   -3.6807    0.9886 F   0  0  0  0  0  0  0  0  0  0  0  0
   -1.2109    3.6346   -1.3585 O   0  0  0  0  0  0  0  0  0  0  0  0
    8.5157   -2.6658   -0.0819 O   0  5  0  0  0  0  0  0  0  0  0  0
    6.9336   -4.0719    0.5004 O   0  0  0  0  0  0  0  0  0  0  0  0
   -2.4000    0.7518    0.5432 O   0  0  0  0  0  0  0  0  0  0  0  0
    3.5216    1.1954   -0.1908 N   0  0  0  0  0  0  0  0  0  0  0  0
   -1.5980    3.3495    0.9131 N   0  0  0  0  0  0  0  0  0  0  0  0
    7.3136   -2.9225    0.1697 N   0  3  0  0  0  0  0  0  0  0  0  0
   -2.9118    2.9958    0.7307 N   0  0  0  0  0  0  0  0  0  0  0  0
   -4.6170    1.5068    0.3842 N   0  0  0  0  0  0  0  0  0  0  0  0
    3.7087    2.3679    0.6811 C   0  0  0  0  0  0  0  0  0  0  0  0
    2.1351    0.8718   -0.5593 C   0  0  0  0  0  0  0  0  0  0  0  0
    3.0240    3.6005    0.0868 C   0  0  0  0  0  0  0  0  0  0  0  0
    1.4316    2.0937   -1.1562 C   0  0  0  0  0  0  0  0  0  0  0  0
    1.5949    3.2922   -0.2637 C   0  0  0  0  0  0  0  0  0  0  0  0
    4.4680    0.1677   -0.1005 C   0  0  0  0  0  0  0  0  0  0  0  0
    0.5593    4.0099    0.1925 C   0  0  0  0  0  0  0  0  0  0  0  0
    4.0687   -1.1179    0.2648 C   0  0  0  0  0  0  0  0  0  0  0  0
    5.8100    0.4293   -0.3766 C   0  0  0  0  0  0  0  0  0  0  0  0
   -0.8290    3.6510   -0.1928 C   0  0  0  0  0  0  0  0  0  0  0  0
    5.0115   -2.1420    0.3539 C   0  0  0  0  0  0  0  0  0  0  0  0
    6.7527   -0.5948   -0.2874 C   0  0  0  0  0  0  0  0  0  0  0  0
    6.3535   -1.8804    0.0779 C   0  0  0  0  0  0  0  0  0  0  0  0
   -5.3471    0.3140    0.1755 C   0  0  0  0  0  0  0  0  0  0  0  0
   -3.2371    1.6517    0.5492 C   0  0  0  0  0  0  0  0  0  0  0  0
   -5.4028   -2.0864   -0.0922 C   0  0  0  0  0  0  0  0  0  0  0  0
   -4.6817   -0.9104    0.1141 C   0  0  0  0  0  0  0  0  0  0  0  0
   -6.7337    0.3622    0.0308 C   0  0  0  0  0  0  0  0  0  0  0  0
   -6.7893   -2.0382   -0.2368 C   0  0  0  0  0  0  0  0  0  0  0  0
   -7.4548   -0.8138   -0.1753 C   0  0  0  0  0  0  0  0  0  0  0  0
   -4.6915   -3.3953   -0.1583 C   0  0  0  0  0  0  0  0  0  0  0  0
    4.7690    2.6058    0.8248 H   0  0  0  0  0  0  0  0  0  0  0  0
    3.2938    2.1456    1.6730 H   0  0  0  0  0  0  0  0  0  0  0  0
    2.1096    0.0720   -1.3102 H   0  0  0  0  0  0  0  0  0  0  0  0
    1.5869    0.5236    0.3257 H   0  0  0  0  0  0  0  0  0  0  0  0
    3.0944    4.4334    0.7959 H   0  0  0  0  0  0  0  0  0  0  0  0
    3.5503    3.9103   -0.8250 H   0  0  0  0  0  0  0  0  0  0  0  0
    1.8790    2.3291   -2.1308 H   0  0  0  0  0  0  0  0  0  0  0  0
    0.3944    1.8120   -1.3519 H   0  0  0  0  0  0  0  0  0  0  0  0
    0.6912    4.8426    0.8746 H   0  0  0  0  0  0  0  0  0  0  0  0
    3.0351   -1.3536    0.5019 H   0  0  0  0  0  0  0  0  0  0  0  0
    6.1382    1.4211   -0.6772 H   0  0  0  0  0  0  0  0  0  0  0  0
    4.6652   -3.1305    0.6448 H   0  0  0  0  0  0  0  0  0  0  0  0
    7.7888   -0.3552   -0.5126 H   0  0  0  0  0  0  0  0  0  0  0  0
   -1.2591    3.3718    1.8694 H   0  0  0  0  0  0  0  0  0  0  0  0
   -3.5982    3.7420    0.7432 H   0  0  0  0  0  0  0  0  0  0  0  0
   -5.1697    2.3599    0.4169 H   0  0  0  0  0  0  0  0  0  0  0  0
   -3.6109   -1.0170    0.2178 H   0  0  0  0  0  0  0  0  0  0  0  0
   -7.2645    1.3096    0.0767 H   0  0  0  0  0  0  0  0  0  0  0  0
   -7.3683   -2.9433   -0.3981 H   0  0  0  0  0  0  0  0  0  0  0  0
   -8.5344   -0.7761   -0.2879 H   0  0  0  0  0  0  0  0  0  0  0  0
  1 33  1  0  0  0  0
  2 33  1  0  0  0  0
  3 33  1  0  0  0  0
  4 22  2  0  0  0  0
  5 10  1  0  0  0  0
  6 10  2  0  0  0  0
  7 27  2  0  0  0  0
  8 13  1  0  0  0  0
  8 14  1  0  0  0  0
  8 18  1  0  0  0  0
  9 11  1  0  0  0  0
  9 22  1  0  0  0  0
  9 47  1  0  0  0  0
 10 25  1  0  0  0  0
 11 27  1  0  0  0  0
 11 48  1  0  0  0  0
 12 26  1  0  0  0  0
 12 27  1  0  0  0  0
 12 49  1  0  0  0  0
 13 15  1  0  0  0  0
 13 34  1  0  0  0  0
 13 35  1  0  0  0  0
 14 16  1  0  0  0  0
 14 36  1  0  0  0  0
 14 37  1  0  0  0  0
 15 17  1  0  0  0  0
 15 38  1  0  0  0  0
 15 39  1  0  0  0  0
 16 17  1  0  0  0  0
 16 40  1  0  0  0  0
 16 41  1  0  0  0  0
 17 19  2  0  0  0  0
 18 20  2  0  0  0  0
 18 21  1  0  0  0  0
 19 22  1  0  0  0  0
 19 42  1  0  0  0  0
 20 23  1  0  0  0  0
 20 43  1  0  0  0  0
 21 24  2  0  0  0  0
 21 44  1  0  0  0  0
 23 25  2  0  0  0  0
 23 45  1  0  0  0  0
 24 25  1  0  0  0  0
 24 46  1  0  0  0  0
 26 29  1  0  0  0  0
 26 30  2  0  0  0  0
 28 29  2  0  0  0  0
 28 31  1  0  0  0  0
 28 33  1  0  0  0  0
 29 50  1  0  0  0  0
 30 32  1  0  0  0  0
 30 51  1  0  0  0  0
 31 32  2  0  0  0  0
 31 52  1  0  0  0  0
 32 53  1  0  0  0  0
M  CHG  2   5  -1  10   1
M  END
> <PUBCHEM_COMPOUND_CID>
2765122

> <PUBCHEM_CONFORMER_RMSD>
1.2

> <PUBCHEM_CONFORMER_DIVERSEORDER>
1
13
42
10
35
76
38
22
63
29
59
79
24
23
25
60
31
56
15
16
49
27
61
67
85
70
69
21
2
52
77
6
44
65
66
40
39
84
71
58
88
5
43
89
17
41
72
34
11
8
3
26
47
64
4
30
73
90
86
32
62
45
18
75
14
7
68
55
78
54
74
80
53
82
83
20
12
51
19
37
81
46
50
28
9
36
48
87
57
33

> <PUBCHEM_MMFF94_PARTIAL_CHARGES>
45
1 -0.34
10 0.91
11 -0.43
12 -0.55
13 0.37
14 0.37
15 0.14
16 0.14
17 -0.28
18 0.1
19 -0.14
2 -0.34
20 -0.15
21 -0.15
22 0.62
23 -0.15
24 -0.15
25 0.13
26 0.12
27 0.69
28 -0.14
29 -0.15
3 -0.34
30 -0.15
31 -0.15
32 -0.15
33 1.16
4 -0.57
42 0.15
43 0.15
44 0.15
45 0.15
46 0.15
47 0.37
48 0.37
49 0.37
5 -0.52
50 0.15
51 0.15
52 0.15
53 0.15
6 -0.52
7 -0.57
8 -0.84
9 -0.43

> <PUBCHEM_EFFECTIVE_ROTOR_COUNT>
10

> <PUBCHEM_PHARMACOPHORE_FEATURES>
12
1 11 donor
1 12 donor
1 4 acceptor
1 5 acceptor
1 5 anion
1 6 acceptor
1 7 acceptor
1 8 cation
1 9 donor
6 18 20 21 23 24 25 rings
6 26 28 29 30 31 32 rings
6 8 13 14 15 16 17 rings

> <PUBCHEM_HEAVY_ATOM_COUNT>
33

> <PUBCHEM_ATOM_DEF_STEREO_COUNT>
0

> <PUBCHEM_ATOM_UDEF_STEREO_COUNT>
0

> <PUBCHEM_BOND_DEF_STEREO_COUNT>
0

> <PUBCHEM_BOND_UDEF_STEREO_COUNT>
0

> <PUBCHEM_ISOTOPIC_ATOM_COUNT>
0

> <PUBCHEM_COMPONENT_COUNT>
1

> <PUBCHEM_CACTVS_TAUTO_COUNT>
6

> <PUBCHEM_CONFORMER_ID>
002A314200000001

> <PUBCHEM_MMFF94_ENERGY>
98.0157

> <PUBCHEM_FEATURE_SELFOVERLAP>
62.573

> <PUBCHEM_SHAPE_FINGERPRINT>
10100884 174 18334293124915154410
10254770 206 18412537700488152447
10305334 12 18270970029862229121
10622 236 18339923826490979525
11135609 99 18413388748289068532
11497681 19 18334581209988477452
117089 54 18192999433503875187
11756154 67 18410294679381275004
11761917 116 18411144624104096390
11963148 33 18197213874389126460
12174731 88 18413670223429198823
12522641 126 18115037398354863092
12559416 138 18057315296036278847
12645989 146 18410580552668123778
12758862 65 17489586775112574576
131258 38 18264478671614186716
13248334 5 18194122056219620364
1361 4 18339924934302566697
14068700 675 18411703149666722384
14178184 131 18272365365061408951
15001296 14 18188762989426332729
15019793 15 18053098712093811983
15448158 6 18409161087161761120
15803439 3 17029349697618845421
15911013 46 18340487862839505672
16126227 98 9079107865338731565
17492 89 18339641247370193472
19301676 85 18337668728712662063
20028762 73 18342741814536612390
208703 8 18410005524807912050
22019808 35 17342668764453206838
23559900 14 18196366151699772449
24983565 74 17901660467835871058
32027 91 18341325695680490593
373842 8 18342178907765122191
437795 163 18337960120541713836
5718773 13 18410855434564612576
5874358 3 16915641770671508365
6201460 15 17983571094369906775
7970288 3 18410292493148274376
9555976 147 17703524276331679955
96874 4 18411980260734386269

> <PUBCHEM_SHAPE_MULTIPOLES>
608.92
23.52
6.62
0.84
5.84
0.66
0.08
29.99
-0.25
0.58
-0.06
-0.16
-0.23
-1.37

> <PUBCHEM_SHAPE_SELFOVERLAP>
1302.284

> <PUBCHEM_SHAPE_VOLUME>
336.5

> <PUBCHEM_COORDINATE_TYPE>
2
5
10

$$$$
