MODEL 1
REMARK VINA RESULT:      -5.6      0.000      0.000
REMARK  8 active torsions:
REMARK  status: ('A' for Active; 'I' for Inactive)
REMARK    1  A    between atoms: O_4  and  C_14 
REMARK    2  A    between atoms: O_4  and  C_18 
REMARK    3  A    between atoms: O_5  and  C_17 
REMARK    4  A    between atoms: O_7  and  C_23 
REMARK    5  A    between atoms: N_8  and  CA_10 
REMARK    6  A    between atoms: C_9  and  CA_10 
REMARK    7  A    between atoms: C_9  and  C_11 
REMARK    8  A    between atoms: CA_10  and  C_17 
ROOT
ATOM      1  I   UNL d   1       6.833  -2.949  12.222  0.00  0.00    -0.042 I 
ATOM      2  I   UNL d   1       4.259  -2.293   6.727  0.00  0.00    -0.042 I 
ATOM      3  C   UNL d   1       8.105  -3.659   8.152  0.00  0.00    -0.053 A 
ATOM      4  C   UNL d   1       7.028  -3.299   7.357  0.00  0.00     0.028 A 
ATOM      5  C   UNL d   1       8.048  -3.559   9.532  0.00  0.00     0.028 A 
ATOM      6  C   UNL d   1       5.790  -2.719   9.349  0.00  0.00     0.109 A 
ATOM      7  C   UNL d   1       6.882  -3.085  10.135  0.00  0.00     0.042 A 
ATOM      8  C   UNL d   1       5.863  -2.826   7.960  0.00  0.00     0.042 A 
ENDROOT
BRANCH   6   9
ATOM      9  O   UNL d   1       4.648  -2.256   9.939  0.00  0.00    -0.308 OA
BRANCH   9  10
ATOM     10  C   UNL d   1       4.484  -0.885  10.024  0.00  0.00     0.077 A 
ATOM     11  C   UNL d   1       3.234  -0.372  10.327  0.00  0.00     0.058 A 
ATOM     12  C   UNL d   1       3.069   1.010  10.413  0.00  0.00     0.042 A 
ATOM     13  I   UNL d   1       1.174   1.762  10.871  0.00  0.00    -0.042 I 
ATOM     14  C   UNL d   1       4.156   1.858  10.194  0.00  0.00     0.082 A 
ATOM     15  C   UNL d   1       5.408   1.323   9.890  0.00  0.00     0.040 A 
ATOM     16  C   UNL d   1       5.572  -0.060   9.805  0.00  0.00     0.040 A 
BRANCH  14  17
ATOM     17  O   UNL d   1       4.037   3.214  10.269  0.00  0.00    -0.359 OA
ATOM     18  H   UNL d   1       4.271   3.508  11.165  0.00  0.00     0.217 HD
ENDBRANCH  14  17
ENDBRANCH   9  10
ENDBRANCH   6   9
BRANCH   3  19
ATOM     19  C   UNL d   1       9.367  -4.172   7.499  0.00  0.00     0.085 C 
BRANCH  19  20
ATOM     20  CA  UNL d   1       9.930  -3.206   6.445  0.00  0.00     0.318 C 
BRANCH  20  21
ATOM     21  N   UNL d   1      10.630  -3.960   5.407  0.00  0.00     0.093 N 
ATOM     22  H1  UNL d   1      11.342  -4.550   5.835  0.00  0.00     0.314 HD
ATOM     23  H2  UNL d   1      11.134  -3.318   4.795  0.00  0.00     0.314 HD
ENDBRANCH  20  21
BRANCH  20  24
ATOM     24  C   UNL d   1      10.940  -2.239   7.037  0.00  0.00     0.174 C 
ATOM     25  OXT UNL d   1      11.006  -1.046   6.770  0.00  0.00    -0.648 OA
BRANCH  24  26
ATOM     26  O   UNL d   1      11.759  -2.838   7.941  0.00  0.00    -0.775 OA
ATOM     27  H   UNL d   1      12.583  -2.324   8.082  0.00  0.00     0.167 HD
ENDBRANCH  24  26
ENDBRANCH  20  24
ENDBRANCH  19  20
ENDBRANCH   3  19
TORSDOF 8
ENDMDL
MODEL 2
REMARK VINA RESULT:      -5.4      4.358      5.494
REMARK  8 active torsions:
REMARK  status: ('A' for Active; 'I' for Inactive)
REMARK    1  A    between atoms: O_4  and  C_14 
REMARK    2  A    between atoms: O_4  and  C_18 
REMARK    3  A    between atoms: O_5  and  C_17 
REMARK    4  A    between atoms: O_7  and  C_23 
REMARK    5  A    between atoms: N_8  and  CA_10 
REMARK    6  A    between atoms: C_9  and  CA_10 
REMARK    7  A    between atoms: C_9  and  C_11 
REMARK    8  A    between atoms: CA_10  and  C_17 
ROOT
ATOM      1  I   UNL d   1       1.490  -1.803  11.162  0.00  0.00    -0.042 I 
ATOM      2  I   UNL d   1       6.637   0.876   9.272  0.00  0.00    -0.042 I 
ATOM      3  C   UNL d   1       5.696  -2.774  11.387  0.00  0.00    -0.053 A 
ATOM      4  C   UNL d   1       6.354  -1.732  10.754  0.00  0.00     0.028 A 
ATOM      5  C   UNL d   1       4.316  -2.793  11.502  0.00  0.00     0.028 A 
ATOM      6  C   UNL d   1       4.219  -0.683  10.329  0.00  0.00     0.109 A 
ATOM      7  C   UNL d   1       3.572  -1.740  10.970  0.00  0.00     0.042 A 
ATOM      8  C   UNL d   1       5.609  -0.679  10.221  0.00  0.00     0.042 A 
ENDROOT
BRANCH   6   9
ATOM      9  O   UNL d   1       3.491   0.348   9.807  0.00  0.00    -0.308 OA
BRANCH   9  10
ATOM     10  C   UNL d   1       3.164   0.283   8.464  0.00  0.00     0.077 A 
ATOM     11  C   UNL d   1       2.625   1.398   7.845  0.00  0.00     0.058 A 
ATOM     12  C   UNL d   1       2.296   1.332   6.492  0.00  0.00     0.042 A 
ATOM     13  I   UNL d   1       1.483   3.027   5.579  0.00  0.00    -0.042 I 
ATOM     14  C   UNL d   1       2.512   0.152   5.778  0.00  0.00     0.082 A 
ATOM     15  C   UNL d   1       3.057  -0.961   6.418  0.00  0.00     0.040 A 
ATOM     16  C   UNL d   1       3.385  -0.894   7.772  0.00  0.00     0.040 A 
BRANCH  14  17
ATOM     17  O   UNL d   1       2.205   0.047   4.454  0.00  0.00    -0.359 OA
ATOM     18  H   UNL d   1       2.972  -0.307   3.973  0.00  0.00     0.217 HD
ENDBRANCH  14  17
ENDBRANCH   9  10
ENDBRANCH   6   9
BRANCH   3  19
ATOM     19  C   UNL d   1       6.502  -3.915  11.964  0.00  0.00     0.085 C 
BRANCH  19  20
ATOM     20  CA  UNL d   1       7.392  -3.483  13.139  0.00  0.00     0.318 C 
BRANCH  20  21
ATOM     21  N   UNL d   1       8.762  -3.943  12.917  0.00  0.00     0.093 N 
ATOM     22  H1  UNL d   1       9.233  -3.313  12.269  0.00  0.00     0.314 HD
ATOM     23  H2  UNL d   1       8.750  -4.854  12.459  0.00  0.00     0.314 HD
ENDBRANCH  20  21
BRANCH  20  24
ATOM     24  C   UNL d   1       6.938  -4.091  14.454  0.00  0.00     0.174 C 
ATOM     25  OXT UNL d   1       6.622  -3.451  15.449  0.00  0.00    -0.648 OA
BRANCH  24  26
ATOM     26  O   UNL d   1       6.880  -5.448  14.404  0.00  0.00    -0.775 OA
ATOM     27  H   UNL d   1       7.751  -5.841  14.181  0.00  0.00     0.167 HD
ENDBRANCH  24  26
ENDBRANCH  20  24
ENDBRANCH  19  20
ENDBRANCH   3  19
TORSDOF 8
ENDMDL
MODEL 3
REMARK VINA RESULT:      -5.4      0.674      2.208
REMARK  8 active torsions:
REMARK  status: ('A' for Active; 'I' for Inactive)
REMARK    1  A    between atoms: O_4  and  C_14 
REMARK    2  A    between atoms: O_4  and  C_18 
REMARK    3  A    between atoms: O_5  and  C_17 
REMARK    4  A    between atoms: O_7  and  C_23 
REMARK    5  A    between atoms: N_8  and  CA_10 
REMARK    6  A    between atoms: C_9  and  CA_10 
REMARK    7  A    between atoms: C_9  and  C_11 
REMARK    8  A    between atoms: CA_10  and  C_17 
ROOT
ATOM      1  I   UNL d   1       4.615  -2.362   6.337  0.00  0.00    -0.042 I 
ATOM      2  I   UNL d   1       6.730  -2.906  12.037  0.00  0.00    -0.042 I 
ATOM      3  C   UNL d   1       8.344  -3.657   8.097  0.00  0.00    -0.053 A 
ATOM      4  C   UNL d   1       8.171  -3.539   9.467  0.00  0.00     0.028 A 
ATOM      5  C   UNL d   1       7.334  -3.323   7.211  0.00  0.00     0.028 A 
ATOM      6  C   UNL d   1       5.926  -2.733   9.083  0.00  0.00     0.109 A 
ATOM      7  C   UNL d   1       6.117  -2.858   7.707  0.00  0.00     0.042 A 
ATOM      8  C   UNL d   1       6.954  -3.073   9.963  0.00  0.00     0.042 A 
ENDROOT
BRANCH   6   9
ATOM      9  O   UNL d   1       4.734  -2.276   9.569  0.00  0.00    -0.308 OA
BRANCH   9  10
ATOM     10  C   UNL d   1       4.602  -0.913   9.760  0.00  0.00     0.077 A 
ATOM     11  C   UNL d   1       3.379  -0.400  10.157  0.00  0.00     0.058 A 
ATOM     12  C   UNL d   1       3.247   0.974  10.350  0.00  0.00     0.042 A 
ATOM     13  I   UNL d   1       1.390   1.725  10.947  0.00  0.00    -0.042 I 
ATOM     14  C   UNL d   1       4.341   1.816  10.143  0.00  0.00     0.082 A 
ATOM     15  C   UNL d   1       5.566   1.282   9.744  0.00  0.00     0.040 A 
ATOM     16  C   UNL d   1       5.697  -0.093   9.552  0.00  0.00     0.040 A 
BRANCH  14  17
ATOM     17  O   UNL d   1       4.254   3.165  10.321  0.00  0.00    -0.359 OA
ATOM     18  H   UNL d   1       3.520   3.362  10.927  0.00  0.00     0.217 HD
ENDBRANCH  14  17
ENDBRANCH   9  10
ENDBRANCH   6   9
BRANCH   3  19
ATOM     19  C   UNL d   1       9.663  -4.161   7.560  0.00  0.00     0.085 C 
BRANCH  19  20
ATOM     20  CA  UNL d   1       9.972  -3.640   6.148  0.00  0.00     0.318 C 
BRANCH  20  21
ATOM     21  N   UNL d   1      10.180  -4.765   5.240  0.00  0.00     0.093 N 
ATOM     22  H1  UNL d   1      11.178  -4.947   5.143  0.00  0.00     0.314 HD
ATOM     23  H2  UNL d   1       9.850  -4.521   4.305  0.00  0.00     0.314 HD
ENDBRANCH  20  21
BRANCH  20  24
ATOM     24  C   UNL d   1      11.243  -2.810   6.110  0.00  0.00     0.174 C 
ATOM     25  OXT UNL d   1      12.270  -3.128   5.524  0.00  0.00    -0.648 OA
BRANCH  24  26
ATOM     26  O   UNL d   1      11.113  -1.634   6.779  0.00  0.00    -0.775 OA
ATOM     27  H   UNL d   1      10.795  -0.915   6.193  0.00  0.00     0.167 HD
ENDBRANCH  24  26
ENDBRANCH  20  24
ENDBRANCH  19  20
ENDBRANCH   3  19
TORSDOF 8
ENDMDL
MODEL 4
REMARK VINA RESULT:      -5.2      4.548      5.583
REMARK  8 active torsions:
REMARK  status: ('A' for Active; 'I' for Inactive)
REMARK    1  A    between atoms: O_4  and  C_14 
REMARK    2  A    between atoms: O_4  and  C_18 
REMARK    3  A    between atoms: O_5  and  C_17 
REMARK    4  A    between atoms: O_7  and  C_23 
REMARK    5  A    between atoms: N_8  and  CA_10 
REMARK    6  A    between atoms: C_9  and  CA_10 
REMARK    7  A    between atoms: C_9  and  C_11 
REMARK    8  A    between atoms: CA_10  and  C_17 
ROOT
ATOM      1  I   UNL d   1       5.407   1.618   9.562  0.00  0.00    -0.042 I 
ATOM      2  I   UNL d   1       0.894  -2.418  10.331  0.00  0.00    -0.042 I 
ATOM      3  C   UNL d   1       5.137  -2.389  11.159  0.00  0.00    -0.053 A 
ATOM      4  C   UNL d   1       3.804  -2.748  11.043  0.00  0.00     0.028 A 
ATOM      5  C   UNL d   1       5.591  -1.150  10.738  0.00  0.00     0.028 A 
ATOM      6  C   UNL d   1       3.341  -0.590  10.061  0.00  0.00     0.109 A 
ATOM      7  C   UNL d   1       4.686  -0.244  10.185  0.00  0.00     0.042 A 
ATOM      8  C   UNL d   1       2.900  -1.841  10.490  0.00  0.00     0.042 A 
ENDROOT
BRANCH   6   9
ATOM      9  O   UNL d   1       2.454   0.298   9.520  0.00  0.00    -0.308 OA
BRANCH   9  10
ATOM     10  C   UNL d   1       2.436   0.424   8.143  0.00  0.00     0.077 A 
ATOM     11  C   UNL d   1       1.983   1.603   7.577  0.00  0.00     0.058 A 
ATOM     12  C   UNL d   1       1.965   1.729   6.189  0.00  0.00     0.042 A 
ATOM     13  I   UNL d   1       1.276   3.519   5.358  0.00  0.00    -0.042 I 
ATOM     14  C   UNL d   1       2.399   0.673   5.387  0.00  0.00     0.082 A 
ATOM     15  C   UNL d   1       2.853  -0.508   5.974  0.00  0.00     0.040 A 
ATOM     16  C   UNL d   1       2.871  -0.633   7.363  0.00  0.00     0.040 A 
BRANCH  14  17
ATOM     17  O   UNL d   1       2.398   0.756   4.026  0.00  0.00    -0.359 OA
ATOM     18  H   UNL d   1       1.661   0.228   3.673  0.00  0.00     0.217 HD
ENDBRANCH  14  17
ENDBRANCH   9  10
ENDBRANCH   6   9
BRANCH   3  19
ATOM     19  C   UNL d   1       6.117  -3.371  11.759  0.00  0.00     0.085 C 
BRANCH  19  20
ATOM     20  CA  UNL d   1       6.865  -2.802  12.974  0.00  0.00     0.318 C 
BRANCH  20  21
ATOM     21  N   UNL d   1       8.240  -2.478  12.602  0.00  0.00     0.093 N 
ATOM     22  H1  UNL d   1       8.269  -1.559  12.165  0.00  0.00     0.314 HD
ATOM     23  H2  UNL d   1       8.569  -3.133  11.892  0.00  0.00     0.314 HD
ENDBRANCH  20  21
BRANCH  20  24
ATOM     24  C   UNL d   1       6.947  -3.802  14.114  0.00  0.00     0.174 C 
ATOM     25  OXT UNL d   1       6.558  -3.595  15.257  0.00  0.00    -0.648 OA
BRANCH  24  26
ATOM     26  O   UNL d   1       7.475  -4.991  13.722  0.00  0.00    -0.775 OA
ATOM     27  H   UNL d   1       6.809  -5.556  13.276  0.00  0.00     0.167 HD
ENDBRANCH  24  26
ENDBRANCH  20  24
ENDBRANCH  19  20
ENDBRANCH   3  19
TORSDOF 8
ENDMDL
MODEL 5
REMARK VINA RESULT:      -5.1      4.008      4.803
REMARK  8 active torsions:
REMARK  status: ('A' for Active; 'I' for Inactive)
REMARK    1  A    between atoms: O_4  and  C_14 
REMARK    2  A    between atoms: O_4  and  C_18 
REMARK    3  A    between atoms: O_5  and  C_17 
REMARK    4  A    between atoms: O_7  and  C_23 
REMARK    5  A    between atoms: N_8  and  CA_10 
REMARK    6  A    between atoms: C_9  and  CA_10 
REMARK    7  A    between atoms: C_9  and  C_11 
REMARK    8  A    between atoms: CA_10  and  C_17 
ROOT
ATOM      1  I   UNL d   1       5.457   1.728   9.565  0.00  0.00    -0.042 I 
ATOM      2  I   UNL d   1       1.701  -2.971   8.537  0.00  0.00    -0.042 I 
ATOM      3  C   UNL d   1       5.183  -2.334  11.019  0.00  0.00    -0.053 A 
ATOM      4  C   UNL d   1       4.084  -2.885  10.379  0.00  0.00     0.028 A 
ATOM      5  C   UNL d   1       5.571  -1.024  10.787  0.00  0.00     0.028 A 
ATOM      6  C   UNL d   1       3.733  -0.785   9.238  0.00  0.00     0.109 A 
ATOM      7  C   UNL d   1       4.841  -0.245   9.890  0.00  0.00     0.042 A 
ATOM      8  C   UNL d   1       3.354  -2.105   9.483  0.00  0.00     0.042 A 
ENDROOT
BRANCH   6   9
ATOM      9  O   UNL d   1       3.017  -0.021   8.360  0.00  0.00    -0.308 OA
BRANCH   9  10
ATOM     10  C   UNL d   1       1.984   0.743   8.872  0.00  0.00     0.077 A 
ATOM     11  C   UNL d   1       1.252   1.550   8.019  0.00  0.00     0.058 A 
ATOM     12  C   UNL d   1       0.211   2.319   8.536  0.00  0.00     0.042 A 
ATOM     13  I   UNL d   1      -0.880   3.531   7.228  0.00  0.00    -0.042 I 
ATOM     14  C   UNL d   1      -0.082   2.270   9.900  0.00  0.00     0.082 A 
ATOM     15  C   UNL d   1       0.666   1.451  10.744  0.00  0.00     0.040 A 
ATOM     16  C   UNL d   1       1.707   0.681  10.226  0.00  0.00     0.040 A 
BRANCH  14  17
ATOM     17  O   UNL d   1      -1.092   3.007  10.445  0.00  0.00    -0.359 OA
ATOM     18  H   UNL d   1      -1.294   2.667  11.333  0.00  0.00     0.217 HD
ENDBRANCH  14  17
ENDBRANCH   9  10
ENDBRANCH   6   9
BRANCH   3  19
ATOM     19  C   UNL d   1       5.973  -3.178  11.991  0.00  0.00     0.085 C 
BRANCH  19  20
ATOM     20  CA  UNL d   1       7.475  -2.854  11.980  0.00  0.00     0.318 C 
BRANCH  20  21
ATOM     21  N   UNL d   1       8.114  -3.509  10.841  0.00  0.00     0.093 N 
ATOM     22  H1  UNL d   1       8.761  -2.862  10.393  0.00  0.00     0.314 HD
ATOM     23  H2  UNL d   1       7.413  -3.734  10.134  0.00  0.00     0.314 HD
ENDBRANCH  20  21
BRANCH  20  24
ATOM     24  C   UNL d   1       8.178  -3.364  13.225  0.00  0.00     0.174 C 
ATOM     25  OXT UNL d   1       7.629  -3.591  14.296  0.00  0.00    -0.648 OA
BRANCH  24  26
ATOM     26  O   UNL d   1       9.503  -3.583  13.018  0.00  0.00    -0.775 OA
ATOM     27  H   UNL d   1      10.044  -2.802  13.263  0.00  0.00     0.167 HD
ENDBRANCH  24  26
ENDBRANCH  20  24
ENDBRANCH  19  20
ENDBRANCH   3  19
TORSDOF 8
ENDMDL
MODEL 6
REMARK VINA RESULT:      -5.1      3.898      4.476
REMARK  8 active torsions:
REMARK  status: ('A' for Active; 'I' for Inactive)
REMARK    1  A    between atoms: O_4  and  C_14 
REMARK    2  A    between atoms: O_4  and  C_18 
REMARK    3  A    between atoms: O_5  and  C_17 
REMARK    4  A    between atoms: O_7  and  C_23 
REMARK    5  A    between atoms: N_8  and  CA_10 
REMARK    6  A    between atoms: C_9  and  CA_10 
REMARK    7  A    between atoms: C_9  and  C_11 
REMARK    8  A    between atoms: CA_10  and  C_17 
ROOT
ATOM      1  I   UNL d   1       2.230  -3.391   9.515  0.00  0.00    -0.042 I 
ATOM      2  I   UNL d   1       6.654   0.806   9.282  0.00  0.00    -0.042 I 
ATOM      3  C   UNL d   1       5.912  -2.717  11.676  0.00  0.00    -0.053 A 
ATOM      4  C   UNL d   1       6.463  -1.570  11.125  0.00  0.00     0.028 A 
ATOM      5  C   UNL d   1       4.711  -3.232  11.218  0.00  0.00     0.028 A 
ATOM      6  C   UNL d   1       4.581  -1.428   9.616  0.00  0.00     0.109 A 
ATOM      7  C   UNL d   1       4.041  -2.583  10.181  0.00  0.00     0.042 A 
ATOM      8  C   UNL d   1       5.792  -0.922  10.088  0.00  0.00     0.042 A 
ENDROOT
BRANCH   6   9
ATOM      9  O   UNL d   1       3.925  -0.793   8.600  0.00  0.00    -0.308 OA
BRANCH   9  10
ATOM     10  C   UNL d   1       3.022   0.196   8.942  0.00  0.00     0.077 A 
ATOM     11  C   UNL d   1       2.320   0.847   7.943  0.00  0.00     0.058 A 
ATOM     12  C   UNL d   1       1.409   1.844   8.289  0.00  0.00     0.042 A 
ATOM     13  I   UNL d   1       0.362   2.813   6.762  0.00  0.00    -0.042 I 
ATOM     14  C   UNL d   1       1.214   2.176   9.630  0.00  0.00     0.082 A 
ATOM     15  C   UNL d   1       1.930   1.509  10.625  0.00  0.00     0.040 A 
ATOM     16  C   UNL d   1       2.841   0.512  10.277  0.00  0.00     0.040 A 
BRANCH  14  17
ATOM     17  O   UNL d   1       0.333   3.144  10.011  0.00  0.00    -0.359 OA
ATOM     18  H   UNL d   1      -0.553   2.922   9.678  0.00  0.00     0.217 HD
ENDBRANCH  14  17
ENDBRANCH   9  10
ENDBRANCH   6   9
BRANCH   3  19
ATOM     19  C   UNL d   1       6.638  -3.420  12.799  0.00  0.00     0.085 C 
BRANCH  19  20
ATOM     20  CA  UNL d   1       7.480  -4.610  12.313  0.00  0.00     0.318 C 
BRANCH  20  21
ATOM     21  N   UNL d   1       7.442  -5.680  13.307  0.00  0.00     0.093 N 
ATOM     22  H1  UNL d   1       6.936  -6.480  12.930  0.00  0.00     0.314 HD
ATOM     23  H2  UNL d   1       6.910  -5.376  14.123  0.00  0.00     0.314 HD
ENDBRANCH  20  21
BRANCH  20  24
ATOM     24  C   UNL d   1       8.941  -4.240  12.128  0.00  0.00     0.174 C 
ATOM     25  OXT UNL d   1       9.562  -4.346  11.078  0.00  0.00    -0.648 OA
BRANCH  24  26
ATOM     26  O   UNL d   1       9.493  -3.734  13.262  0.00  0.00    -0.775 OA
ATOM     27  H   UNL d   1      10.255  -3.148  13.066  0.00  0.00     0.167 HD
ENDBRANCH  24  26
ENDBRANCH  20  24
ENDBRANCH  19  20
ENDBRANCH   3  19
TORSDOF 8
ENDMDL
MODEL 7
REMARK VINA RESULT:      -5.1      6.107      9.971
REMARK  8 active torsions:
REMARK  status: ('A' for Active; 'I' for Inactive)
REMARK    1  A    between atoms: O_4  and  C_14 
REMARK    2  A    between atoms: O_4  and  C_18 
REMARK    3  A    between atoms: O_5  and  C_17 
REMARK    4  A    between atoms: O_7  and  C_23 
REMARK    5  A    between atoms: N_8  and  CA_10 
REMARK    6  A    between atoms: C_9  and  CA_10 
REMARK    7  A    between atoms: C_9  and  C_11 
REMARK    8  A    between atoms: CA_10  and  C_17 
ROOT
ATOM      1  I   UNL d   1       2.315   0.998   4.612  0.00  0.00    -0.042 I 
ATOM      2  I   UNL d   1      -0.431   2.266   9.912  0.00  0.00    -0.042 I 
ATOM      3  C   UNL d   1      -0.168   4.222   6.067  0.00  0.00    -0.053 A 
ATOM      4  C   UNL d   1      -0.466   3.900   7.381  0.00  0.00     0.028 A 
ATOM      5  C   UNL d   1       0.621   3.398   5.282  0.00  0.00     0.028 A 
ATOM      6  C   UNL d   1       0.837   1.879   7.148  0.00  0.00     0.109 A 
ATOM      7  C   UNL d   1       1.128   2.218   5.827  0.00  0.00     0.042 A 
ATOM      8  C   UNL d   1       0.040   2.720   7.925  0.00  0.00     0.042 A 
ENDROOT
BRANCH   6   9
ATOM      9  O   UNL d   1       1.332   0.723   7.682  0.00  0.00    -0.308 OA
BRANCH   9  10
ATOM     10  C   UNL d   1       2.551   0.790   8.332  0.00  0.00     0.077 A 
ATOM     11  C   UNL d   1       3.065  -0.351   8.924  0.00  0.00     0.058 A 
ATOM     12  C   UNL d   1       4.294  -0.282   9.579  0.00  0.00     0.042 A 
ATOM     13  I   UNL d   1       5.050  -2.017  10.467  0.00  0.00    -0.042 I 
ATOM     14  C   UNL d   1       4.991   0.926   9.631  0.00  0.00     0.082 A 
ATOM     15  C   UNL d   1       4.458   2.065   9.028  0.00  0.00     0.040 A 
ATOM     16  C   UNL d   1       3.228   1.995   8.373  0.00  0.00     0.040 A 
BRANCH  14  17
ATOM     17  O   UNL d   1       6.195   1.035  10.262  0.00  0.00    -0.359 OA
ATOM     18  H   UNL d   1       6.909   0.949   9.607  0.00  0.00     0.217 HD
ENDBRANCH  14  17
ENDBRANCH   9  10
ENDBRANCH   6   9
BRANCH   3  19
ATOM     19  C   UNL d   1      -0.717   5.500   5.477  0.00  0.00     0.085 C 
BRANCH  19  20
ATOM     20  CA  UNL d   1      -1.806   6.143   6.350  0.00  0.00     0.318 C 
BRANCH  20  21
ATOM     21  N   UNL d   1      -3.012   6.362   5.555  0.00  0.00     0.093 N 
ATOM     22  H1  UNL d   1      -3.806   6.516   6.174  0.00  0.00     0.314 HD
ATOM     23  H2  UNL d   1      -3.233   5.520   5.023  0.00  0.00     0.314 HD
ENDBRANCH  20  21
BRANCH  20  24
ATOM     24  C   UNL d   1      -1.383   7.500   6.884  0.00  0.00     0.174 C 
ATOM     25  OXT UNL d   1      -1.634   7.919   8.007  0.00  0.00    -0.648 OA
BRANCH  24  26
ATOM     26  O   UNL d   1      -0.651   8.205   5.982  0.00  0.00    -0.775 OA
ATOM     27  H   UNL d   1      -0.964   8.059   5.064  0.00  0.00     0.167 HD
ENDBRANCH  24  26
ENDBRANCH  20  24
ENDBRANCH  19  20
ENDBRANCH   3  19
TORSDOF 8
ENDMDL
MODEL 8
REMARK VINA RESULT:      -5.1     17.635     20.020
REMARK  8 active torsions:
REMARK  status: ('A' for Active; 'I' for Inactive)
REMARK    1  A    between atoms: O_4  and  C_14 
REMARK    2  A    between atoms: O_4  and  C_18 
REMARK    3  A    between atoms: O_5  and  C_17 
REMARK    4  A    between atoms: O_7  and  C_23 
REMARK    5  A    between atoms: N_8  and  CA_10 
REMARK    6  A    between atoms: C_9  and  CA_10 
REMARK    7  A    between atoms: C_9  and  C_11 
REMARK    8  A    between atoms: CA_10  and  C_17 
ROOT
ATOM      1  I   UNL d   1       5.383  17.366  -1.728  0.00  0.00    -0.042 I 
ATOM      2  I   UNL d   1       4.817  11.290  -1.699  0.00  0.00    -0.042 I 
ATOM      3  C   UNL d   1       4.202  14.426   1.212  0.00  0.00    -0.053 A 
ATOM      4  C   UNL d   1       4.289  13.201   0.570  0.00  0.00     0.028 A 
ATOM      5  C   UNL d   1       4.513  15.607   0.559  0.00  0.00     0.028 A 
ATOM      6  C   UNL d   1       5.015  14.338  -1.435  0.00  0.00     0.109 A 
ATOM      7  C   UNL d   1       4.923  15.562  -0.774  0.00  0.00     0.042 A 
ATOM      8  C   UNL d   1       4.698  13.157  -0.763  0.00  0.00     0.042 A 
ENDROOT
BRANCH   6   9
ATOM      9  O   UNL d   1       5.416  14.294  -2.740  0.00  0.00    -0.308 OA
BRANCH   9  10
ATOM     10  C   UNL d   1       6.775  14.340  -2.993  0.00  0.00     0.077 A 
ATOM     11  C   UNL d   1       7.215  14.528  -4.292  0.00  0.00     0.058 A 
ATOM     12  C   UNL d   1       8.585  14.575  -4.546  0.00  0.00     0.042 A 
ATOM     13  I   UNL d   1       9.225  14.859  -6.515  0.00  0.00    -0.042 I 
ATOM     14  C   UNL d   1       9.494  14.432  -3.497  0.00  0.00     0.082 A 
ATOM     15  C   UNL d   1       9.033  14.244  -2.195  0.00  0.00     0.040 A 
ATOM     16  C   UNL d   1       7.662  14.197  -1.941  0.00  0.00     0.040 A 
BRANCH  14  17
ATOM     17  O   UNL d   1      10.842  14.472  -3.704  0.00  0.00    -0.359 OA
ATOM     18  H   UNL d   1      11.257  15.013  -3.011  0.00  0.00     0.217 HD
ENDBRANCH  14  17
ENDBRANCH   9  10
ENDBRANCH   6   9
BRANCH   3  19
ATOM     19  C   UNL d   1       3.757  14.474   2.655  0.00  0.00     0.085 C 
BRANCH  19  20
ATOM     20  CA  UNL d   1       4.720  15.269   3.551  0.00  0.00     0.318 C 
BRANCH  20  21
ATOM     21  N   UNL d   1       5.823  14.411   3.975  0.00  0.00     0.093 N 
ATOM     22  H1  UNL d   1       6.495  14.316   3.215  0.00  0.00     0.314 HD
ATOM     23  H2  UNL d   1       5.477  13.469   4.159  0.00  0.00     0.314 HD
ENDBRANCH  20  21
BRANCH  20  24
ATOM     24  C   UNL d   1       4.043  15.766   4.816  0.00  0.00     0.174 C 
ATOM     25  OXT UNL d   1       2.848  16.012   4.920  0.00  0.00    -0.648 OA
BRANCH  24  26
ATOM     26  O   UNL d   1       4.911  15.880   5.856  0.00  0.00    -0.775 OA
ATOM     27  H   UNL d   1       4.467  15.733   6.718  0.00  0.00     0.167 HD
ENDBRANCH  24  26
ENDBRANCH  20  24
ENDBRANCH  19  20
ENDBRANCH   3  19
TORSDOF 8
ENDMDL
MODEL 9
REMARK VINA RESULT:      -5.0     14.898     16.454
REMARK  8 active torsions:
REMARK  status: ('A' for Active; 'I' for Inactive)
REMARK    1  A    between atoms: O_4  and  C_14 
REMARK    2  A    between atoms: O_4  and  C_18 
REMARK    3  A    between atoms: O_5  and  C_17 
REMARK    4  A    between atoms: O_7  and  C_23 
REMARK    5  A    between atoms: N_8  and  CA_10 
REMARK    6  A    between atoms: C_9  and  CA_10 
REMARK    7  A    between atoms: C_9  and  C_11 
REMARK    8  A    between atoms: CA_10  and  C_17 
ROOT
ATOM      1  I   UNL d   1       5.639  13.437  -2.095  0.00  0.00    -0.042 I 
ATOM      2  I   UNL d   1       0.656  10.738   0.171  0.00  0.00    -0.042 I 
ATOM      3  C   UNL d   1       4.372   9.342  -1.540  0.00  0.00    -0.053 A 
ATOM      4  C   UNL d   1       3.114   9.415  -0.964  0.00  0.00     0.028 A 
ATOM      5  C   UNL d   1       5.087  10.484  -1.861  0.00  0.00     0.028 A 
ATOM      6  C   UNL d   1       3.264  11.826  -1.018  0.00  0.00     0.109 A 
ATOM      7  C   UNL d   1       4.529  11.735  -1.598  0.00  0.00     0.042 A 
ATOM      8  C   UNL d   1       2.557  10.667  -0.701  0.00  0.00     0.042 A 
ENDROOT
BRANCH   6   9
ATOM      9  O   UNL d   1       2.717  13.052  -0.760  0.00  0.00    -0.308 OA
BRANCH   9  10
ATOM     10  C   UNL d   1       3.005  13.635   0.460  0.00  0.00     0.077 A 
ATOM     11  C   UNL d   1       2.243  14.706   0.894  0.00  0.00     0.058 A 
ATOM     12  C   UNL d   1       2.534  15.293   2.125  0.00  0.00     0.042 A 
ATOM     13  I   UNL d   1       1.370  16.909   2.759  0.00  0.00    -0.042 I 
ATOM     14  C   UNL d   1       3.583  14.801   2.903  0.00  0.00     0.082 A 
ATOM     15  C   UNL d   1       4.340  13.721   2.450  0.00  0.00     0.040 A 
ATOM     16  C   UNL d   1       4.048  13.134   1.218  0.00  0.00     0.040 A 
BRANCH  14  17
ATOM     17  O   UNL d   1       3.899  15.348   4.111  0.00  0.00    -0.359 OA
ATOM     18  H   UNL d   1       4.849  15.554   4.131  0.00  0.00     0.217 HD
ENDBRANCH  14  17
ENDBRANCH   9  10
ENDBRANCH   6   9
BRANCH   3  19
ATOM     19  C   UNL d   1       4.976   7.987  -1.824  0.00  0.00     0.085 C 
BRANCH  19  20
ATOM     20  CA  UNL d   1       6.056   8.031  -2.916  0.00  0.00     0.318 C 
BRANCH  20  21
ATOM     21  N   UNL d   1       5.706   7.110  -3.996  0.00  0.00     0.093 N 
ATOM     22  H1  UNL d   1       6.146   6.206  -3.831  0.00  0.00     0.314 HD
ATOM     23  H2  UNL d   1       6.090   7.450  -4.878  0.00  0.00     0.314 HD
ENDBRANCH  20  21
BRANCH  20  24
ATOM     24  C   UNL d   1       7.414   7.594  -2.396  0.00  0.00     0.174 C 
ATOM     25  OXT UNL d   1       7.924   7.987  -1.354  0.00  0.00    -0.648 OA
BRANCH  24  26
ATOM     26  O   UNL d   1       8.005   6.674  -3.202  0.00  0.00    -0.775 OA
ATOM     27  H   UNL d   1       7.889   5.761  -2.862  0.00  0.00     0.167 HD
ENDBRANCH  24  26
ENDBRANCH  20  24
ENDBRANCH  19  20
ENDBRANCH   3  19
TORSDOF 8
ENDMDL
