MODEL 1
REMARK VINA RESULT:      -7.3      0.000      0.000
REMARK  6 active torsions:
REMARK  status: ('A' for Active; 'I' for Inactive)
REMARK    1  A    between atoms: N_8  and  C_18 
REMARK    2  A    between atoms: N_9  and  N_11 
REMARK       I    between atoms: N_9  and  C_22 
REMARK    3  A    between atoms: N_10  and  C_25 
REMARK       I    between atoms: N_11  and  C_27 
REMARK    4  A    between atoms: N_12  and  C_26 
REMARK       I    between atoms: N_12  and  C_27 
REMARK    5  A    between atoms: C_19  and  C_22 
REMARK    6  A    between atoms: C_28  and  C_33 
ROOT
ATOM      1  O   UNL d   1       1.275  11.725   0.734  0.00  0.00    -0.267 OA
ATOM      2  N   UNL d   1       3.481  12.254   0.240  0.00  0.00    -0.263 N 
ATOM      3  C   UNL d   1       2.208  11.812  -0.058  0.00  0.00     0.260 C 
ATOM      4  H   UNL d   1       4.236  12.320  -0.434  0.00  0.00     0.190 HD
ENDROOT
BRANCH   2   5
ATOM      5  N   UNL d   1       3.766  12.640   1.527  0.00  0.00    -0.248 N 
ATOM      6  C   UNL d   1       4.427  13.848   1.745  0.00  0.00     0.339 C 
ATOM      7  O   UNL d   1       4.774  14.599   0.836  0.00  0.00    -0.245 OA
ATOM      8  N   UNL d   1       4.618  14.053   3.114  0.00  0.00    -0.308 N 
ATOM      9  H   UNL d   1       4.266  13.328   3.735  0.00  0.00     0.170 HD
ATOM     10  H   UNL d   1       3.471  12.019   2.272  0.00  0.00     0.192 HD
BRANCH   8  11
ATOM     11  C   UNL d   1       5.244  15.151   3.750  0.00  0.00     0.037 A 
ATOM     12  C   UNL d   1       6.462  15.632   3.272  0.00  0.00     0.045 A 
ATOM     13  C   UNL d   1       7.078  16.715   3.899  0.00  0.00     0.050 A 
ATOM     14  C   UNL d   1       6.477  17.315   5.005  0.00  0.00     0.016 A 
ATOM     15  C   UNL d   1       5.258  16.835   5.482  0.00  0.00     0.003 A 
ATOM     16  C   UNL d   1       4.641  15.752   4.855  0.00  0.00     0.029 A 
BRANCH  13  17
ATOM     17  C   UNL d   1       8.382  17.229   3.389  0.00  0.00     0.417 C 
ATOM     18  F   UNL d   1       9.408  16.335   3.507  0.00  0.00    -0.166 F 
ATOM     19  F   UNL d   1       8.816  18.354   4.031  0.00  0.00    -0.166 F 
ATOM     20  F   UNL d   1       8.334  17.560   2.065  0.00  0.00    -0.166 F 
ENDBRANCH  13  17
ENDBRANCH   8  11
ENDBRANCH   2   5
BRANCH   3  21
ATOM     21  C   UNL d   1       2.084  11.441  -1.490  0.00  0.00     0.078 C 
ATOM     22  C   UNL d   1       2.526  10.251  -1.921  0.00  0.00    -0.071 C 
ATOM     23  C   UNL d   1       2.432   9.812  -3.355  0.00  0.00     0.054 C 
ATOM     24  C   UNL d   1       3.181   9.244  -1.017  0.00  0.00     0.054 C 
ATOM     25  C   UNL d   1       3.808   9.403  -3.884  0.00  0.00     0.127 C 
ATOM     26  N   UNL d   1       4.449   8.434  -2.978  0.00  0.00    -0.380 N 
ATOM     27  C   UNL d   1       4.550   8.831  -1.565  0.00  0.00     0.127 C 
BRANCH  26  28
ATOM     28  C   UNL d   1       5.416   7.583  -3.524  0.00  0.00     0.030 A 
ATOM     29  C   UNL d   1       6.556   7.257  -2.788  0.00  0.00     0.032 A 
ATOM     30  C   UNL d   1       7.519   6.409  -3.332  0.00  0.00     0.038 A 
ATOM     31  C   UNL d   1       7.343   5.885  -4.614  0.00  0.00     0.103 A 
ATOM     32  C   UNL d   1       6.205   6.211  -5.350  0.00  0.00     0.038 A 
ATOM     33  C   UNL d   1       5.241   7.059  -4.805  0.00  0.00     0.032 A 
BRANCH  31  34
ATOM     34  N   UNL d   1       8.325   5.022  -5.169  0.00  0.00    -0.116 N 
ATOM     35  O   UNL d   1       7.964   4.125  -5.968  0.00  0.00    -0.532 OA
ATOM     36  O   UNL d   1       9.527   5.179  -4.844  0.00  0.00    -0.532 OA
ENDBRANCH  31  34
ENDBRANCH  26  28
ENDBRANCH   3  21
TORSDOF 6
ENDMDL
MODEL 2
REMARK VINA RESULT:      -7.3      8.466     12.532
REMARK  6 active torsions:
REMARK  status: ('A' for Active; 'I' for Inactive)
REMARK    1  A    between atoms: N_8  and  C_18 
REMARK    2  A    between atoms: N_9  and  N_11 
REMARK       I    between atoms: N_9  and  C_22 
REMARK    3  A    between atoms: N_10  and  C_25 
REMARK       I    between atoms: N_11  and  C_27 
REMARK    4  A    between atoms: N_12  and  C_26 
REMARK       I    between atoms: N_12  and  C_27 
REMARK    5  A    between atoms: C_19  and  C_22 
REMARK    6  A    between atoms: C_28  and  C_33 
ROOT
ATOM      1  O   UNL d   1       1.890  16.059   4.801  0.00  0.00    -0.267 OA
ATOM      2  N   UNL d   1       3.497  16.344   6.453  0.00  0.00    -0.263 N 
ATOM      3  C   UNL d   1       2.227  16.435   5.919  0.00  0.00     0.260 C 
ATOM      4  H   UNL d   1       3.750  16.661   7.383  0.00  0.00     0.190 HD
ENDROOT
BRANCH   2   5
ATOM      5  N   UNL d   1       4.497  15.787   5.696  0.00  0.00    -0.248 N 
ATOM      6  C   UNL d   1       5.414  16.623   5.059  0.00  0.00     0.339 C 
ATOM      7  O   UNL d   1       5.377  17.848   5.140  0.00  0.00    -0.245 OA
ATOM      8  N   UNL d   1       6.345  15.863   4.345  0.00  0.00    -0.308 N 
ATOM      9  H   UNL d   1       6.232  14.853   4.385  0.00  0.00     0.170 HD
ATOM     10  H   UNL d   1       4.526  14.776   5.638  0.00  0.00     0.192 HD
BRANCH   8  11
ATOM     11  C   UNL d   1       7.432  16.326   3.569  0.00  0.00     0.037 A 
ATOM     12  C   UNL d   1       7.344  16.331   2.177  0.00  0.00     0.045 A 
ATOM     13  C   UNL d   1       8.417  16.788   1.412  0.00  0.00     0.050 A 
ATOM     14  C   UNL d   1       9.578  17.239   2.038  0.00  0.00     0.016 A 
ATOM     15  C   UNL d   1       9.667  17.235   3.430  0.00  0.00     0.003 A 
ATOM     16  C   UNL d   1       8.594  16.778   4.195  0.00  0.00     0.029 A 
BRANCH  13  17
ATOM     17  C   UNL d   1       8.322  16.792  -0.077  0.00  0.00     0.417 C 
ATOM     18  F   UNL d   1       7.740  15.669  -0.592  0.00  0.00    -0.166 F 
ATOM     19  F   UNL d   1       9.534  16.883  -0.702  0.00  0.00    -0.166 F 
ATOM     20  F   UNL d   1       7.587  17.839  -0.553  0.00  0.00    -0.166 F 
ENDBRANCH  13  17
ENDBRANCH   8  11
ENDBRANCH   2   5
BRANCH   3  21
ATOM     21  C   UNL d   1       1.279  17.060   6.876  0.00  0.00     0.078 C 
ATOM     22  C   UNL d   1       0.814  16.360   7.921  0.00  0.00    -0.071 C 
ATOM     23  C   UNL d   1      -0.147  16.930   8.927  0.00  0.00     0.054 C 
ATOM     24  C   UNL d   1       1.188  14.928   8.180  0.00  0.00     0.054 C 
ATOM     25  C   UNL d   1      -1.389  16.045   9.046  0.00  0.00     0.127 C 
ATOM     26  N   UNL d   1      -1.008  14.640   9.277  0.00  0.00    -0.380 N 
ATOM     27  C   UNL d   1      -0.063  14.055   8.314  0.00  0.00     0.127 C 
BRANCH  26  28
ATOM     28  C   UNL d   1      -1.943  13.815   9.912  0.00  0.00     0.030 A 
ATOM     29  C   UNL d   1      -1.762  12.432   9.919  0.00  0.00     0.032 A 
ATOM     30  C   UNL d   1      -2.693  11.610  10.553  0.00  0.00     0.038 A 
ATOM     31  C   UNL d   1      -3.806  12.171  11.180  0.00  0.00     0.103 A 
ATOM     32  C   UNL d   1      -3.987  13.553  11.173  0.00  0.00     0.038 A 
ATOM     33  C   UNL d   1      -3.055  14.376  10.540  0.00  0.00     0.032 A 
BRANCH  31  34
ATOM     34  N   UNL d   1      -4.755  11.334  11.824  0.00  0.00    -0.116 N 
ATOM     35  O   UNL d   1      -5.928  11.291  11.382  0.00  0.00    -0.532 OA
ATOM     36  O   UNL d   1      -4.395  10.660  12.820  0.00  0.00    -0.532 OA
ENDBRANCH  31  34
ENDBRANCH  26  28
ENDBRANCH   3  21
TORSDOF 6
ENDMDL
MODEL 3
REMARK VINA RESULT:      -7.3     21.845     23.787
REMARK  6 active torsions:
REMARK  status: ('A' for Active; 'I' for Inactive)
REMARK    1  A    between atoms: N_8  and  C_18 
REMARK    2  A    between atoms: N_9  and  N_11 
REMARK       I    between atoms: N_9  and  C_22 
REMARK    3  A    between atoms: N_10  and  C_25 
REMARK       I    between atoms: N_11  and  C_27 
REMARK    4  A    between atoms: N_12  and  C_26 
REMARK       I    between atoms: N_12  and  C_27 
REMARK    5  A    between atoms: C_19  and  C_22 
REMARK    6  A    between atoms: C_28  and  C_33 
ROOT
ATOM      1  O   UNL d   1       8.806  -7.950  12.094  0.00  0.00    -0.267 OA
ATOM      2  N   UNL d   1       9.967  -5.939  12.061  0.00  0.00    -0.263 N 
ATOM      3  C   UNL d   1       9.828  -7.303  11.892  0.00  0.00     0.260 C 
ATOM      4  H   UNL d   1      10.824  -5.426  11.884  0.00  0.00     0.190 HD
ENDROOT
BRANCH   2   5
ATOM      5  N   UNL d   1       8.886  -5.210  12.489  0.00  0.00    -0.248 N 
ATOM      6  C   UNL d   1       8.105  -4.534  11.552  0.00  0.00     0.339 C 
ATOM      7  O   UNL d   1       8.334  -4.556  10.345  0.00  0.00    -0.245 OA
ATOM      8  N   UNL d   1       7.061  -3.859  12.190  0.00  0.00    -0.308 N 
ATOM      9  H   UNL d   1       7.015  -3.948  13.202  0.00  0.00     0.170 HD
ATOM     10  H   UNL d   1       8.699  -5.202  13.486  0.00  0.00     0.192 HD
BRANCH   8  11
ATOM     11  C   UNL d   1       6.053  -3.062  11.600  0.00  0.00     0.037 A 
ATOM     12  C   UNL d   1       6.387  -1.853  10.990  0.00  0.00     0.045 A 
ATOM     13  C   UNL d   1       5.392  -1.068  10.408  0.00  0.00     0.050 A 
ATOM     14  C   UNL d   1       4.063  -1.490  10.438  0.00  0.00     0.016 A 
ATOM     15  C   UNL d   1       3.729  -2.699  11.047  0.00  0.00     0.003 A 
ATOM     16  C   UNL d   1       4.724  -3.485  11.629  0.00  0.00     0.029 A 
BRANCH  13  17
ATOM     17  C   UNL d   1       5.749   0.225   9.756  0.00  0.00     0.417 C 
ATOM     18  F   UNL d   1       7.046   0.284   9.330  0.00  0.00    -0.166 F 
ATOM     19  F   UNL d   1       5.593   1.311  10.571  0.00  0.00    -0.166 F 
ATOM     20  F   UNL d   1       4.988   0.485   8.653  0.00  0.00    -0.166 F 
ENDBRANCH  13  17
ENDBRANCH   8  11
ENDBRANCH   2   5
BRANCH   3  21
ATOM     21  C   UNL d   1      11.093  -7.923  11.425  0.00  0.00     0.078 C 
ATOM     22  C   UNL d   1      11.898  -8.553  12.292  0.00  0.00    -0.071 C 
ATOM     23  C   UNL d   1      13.192  -9.203  11.887  0.00  0.00     0.054 C 
ATOM     24  C   UNL d   1      11.600  -8.656  13.761  0.00  0.00     0.054 C 
ATOM     25  C   UNL d   1      14.351  -8.664  12.728  0.00  0.00     0.127 C 
ATOM     26  N   UNL d   1      14.036  -8.748  14.165  0.00  0.00    -0.380 N 
ATOM     27  C   UNL d   1      12.772  -8.129  14.592  0.00  0.00     0.127 C 
BRANCH  26  28
ATOM     28  C   UNL d   1      15.112  -8.805  15.057  0.00  0.00     0.030 A 
ATOM     29  C   UNL d   1      14.993  -9.520  16.249  0.00  0.00     0.032 A 
ATOM     30  C   UNL d   1      16.065  -9.578  17.139  0.00  0.00     0.038 A 
ATOM     31  C   UNL d   1      17.258  -8.919  16.837  0.00  0.00     0.103 A 
ATOM     32  C   UNL d   1      17.377  -8.203  15.646  0.00  0.00     0.038 A 
ATOM     33  C   UNL d   1      16.304  -8.147  14.756  0.00  0.00     0.032 A 
BRANCH  31  34
ATOM     34  N   UNL d   1      18.349  -8.976  17.743  0.00  0.00    -0.116 N 
ATOM     35  O   UNL d   1      18.162  -8.661  18.943  0.00  0.00    -0.532 OA
ATOM     36  O   UNL d   1      19.474  -9.339  17.319  0.00  0.00    -0.532 OA
ENDBRANCH  31  34
ENDBRANCH  26  28
ENDBRANCH   3  21
TORSDOF 6
ENDMDL
MODEL 4
REMARK VINA RESULT:      -7.2     16.116     20.264
REMARK  6 active torsions:
REMARK  status: ('A' for Active; 'I' for Inactive)
REMARK    1  A    between atoms: N_8  and  C_18 
REMARK    2  A    between atoms: N_9  and  N_11 
REMARK       I    between atoms: N_9  and  C_22 
REMARK    3  A    between atoms: N_10  and  C_25 
REMARK       I    between atoms: N_11  and  C_27 
REMARK    4  A    between atoms: N_12  and  C_26 
REMARK       I    between atoms: N_12  and  C_27 
REMARK    5  A    between atoms: C_19  and  C_22 
REMARK    6  A    between atoms: C_28  and  C_33 
ROOT
ATOM      1  O   UNL d   1      11.070  -2.416   6.922  0.00  0.00    -0.267 OA
ATOM      2  N   UNL d   1      10.020  -4.347   6.173  0.00  0.00    -0.263 N 
ATOM      3  C   UNL d   1      10.324  -3.373   7.103  0.00  0.00     0.260 C 
ATOM      4  H   UNL d   1       9.397  -5.129   6.346  0.00  0.00     0.190 HD
ENDROOT
BRANCH   2   5
ATOM      5  N   UNL d   1      10.583  -4.270   4.923  0.00  0.00    -0.248 N 
ATOM      6  C   UNL d   1      10.494  -5.368   4.068  0.00  0.00     0.339 C 
ATOM      7  O   UNL d   1       9.930  -6.416   4.374  0.00  0.00    -0.245 OA
ATOM      8  N   UNL d   1      11.125  -5.086   2.853  0.00  0.00    -0.308 N 
ATOM      9  H   UNL d   1      11.543  -4.164   2.763  0.00  0.00     0.170 HD
ATOM     10  H   UNL d   1      11.041  -3.401   4.674  0.00  0.00     0.192 HD
BRANCH   8  11
ATOM     11  C   UNL d   1      11.255  -5.929   1.725  0.00  0.00     0.037 A 
ATOM     12  C   UNL d   1      12.431  -6.652   1.526  0.00  0.00     0.045 A 
ATOM     13  C   UNL d   1      12.559  -7.483   0.413  0.00  0.00     0.050 A 
ATOM     14  C   UNL d   1      11.511  -7.591  -0.500  0.00  0.00     0.016 A 
ATOM     15  C   UNL d   1      10.334  -6.869  -0.301  0.00  0.00     0.003 A 
ATOM     16  C   UNL d   1      10.207  -6.038   0.812  0.00  0.00     0.029 A 
BRANCH  13  17
ATOM     17  C   UNL d   1      13.817  -8.255   0.200  0.00  0.00     0.417 C 
ATOM     18  F   UNL d   1      14.733  -7.606  -0.579  0.00  0.00    -0.166 F 
ATOM     19  F   UNL d   1      13.622  -9.462  -0.410  0.00  0.00    -0.166 F 
ATOM     20  F   UNL d   1      14.465  -8.537   1.368  0.00  0.00    -0.166 F 
ENDBRANCH  13  17
ENDBRANCH   8  11
ENDBRANCH   2   5
BRANCH   3  21
ATOM     21  C   UNL d   1       9.626  -3.616   8.391  0.00  0.00     0.078 C 
ATOM     22  C   UNL d   1       8.349  -3.242   8.549  0.00  0.00    -0.071 C 
ATOM     23  C   UNL d   1       7.584  -3.458   9.825  0.00  0.00     0.054 C 
ATOM     24  C   UNL d   1       7.558  -2.551   7.475  0.00  0.00     0.054 C 
ATOM     25  C   UNL d   1       6.997  -2.138  10.330  0.00  0.00     0.127 C 
ATOM     26  N   UNL d   1       6.244  -1.459   9.261  0.00  0.00    -0.380 N 
ATOM     27  C   UNL d   1       6.963  -1.240   7.996  0.00  0.00     0.127 C 
BRANCH  26  28
ATOM     28  C   UNL d   1       5.243  -0.562   9.648  0.00  0.00     0.030 A 
ATOM     29  C   UNL d   1       4.009  -1.041  10.089  0.00  0.00     0.032 A 
ATOM     30  C   UNL d   1       3.011  -0.148  10.476  0.00  0.00     0.038 A 
ATOM     31  C   UNL d   1       3.246   1.227  10.422  0.00  0.00     0.103 A 
ATOM     32  C   UNL d   1       4.479   1.706   9.980  0.00  0.00     0.038 A 
ATOM     33  C   UNL d   1       5.477   0.812   9.594  0.00  0.00     0.032 A 
BRANCH  31  34
ATOM     34  N   UNL d   1       2.230   2.138  10.814  0.00  0.00    -0.116 N 
ATOM     35  O   UNL d   1       1.578   1.907  11.861  0.00  0.00    -0.532 OA
ATOM     36  O   UNL d   1       2.011   3.148  10.103  0.00  0.00    -0.532 OA
ENDBRANCH  31  34
ENDBRANCH  26  28
ENDBRANCH   3  21
TORSDOF 6
ENDMDL
MODEL 5
REMARK VINA RESULT:      -7.1     14.538     16.113
REMARK  6 active torsions:
REMARK  status: ('A' for Active; 'I' for Inactive)
REMARK    1  A    between atoms: N_8  and  C_18 
REMARK    2  A    between atoms: N_9  and  N_11 
REMARK       I    between atoms: N_9  and  C_22 
REMARK    3  A    between atoms: N_10  and  C_25 
REMARK       I    between atoms: N_11  and  C_27 
REMARK    4  A    between atoms: N_12  and  C_26 
REMARK       I    between atoms: N_12  and  C_27 
REMARK    5  A    between atoms: C_19  and  C_22 
REMARK    6  A    between atoms: C_28  and  C_33 
ROOT
ATOM      1  O   UNL d   1       1.476  -0.260  10.061  0.00  0.00    -0.267 OA
ATOM      2  N   UNL d   1       3.708   0.177   9.592  0.00  0.00    -0.263 N 
ATOM      3  C   UNL d   1       2.353   0.440   9.564  0.00  0.00     0.260 C 
ATOM      4  H   UNL d   1       4.415   0.773   9.175  0.00  0.00     0.190 HD
ENDROOT
BRANCH   2   5
ATOM      5  N   UNL d   1       4.151  -0.958  10.225  0.00  0.00    -0.248 N 
ATOM      6  C   UNL d   1       5.518  -1.128  10.440  0.00  0.00     0.339 C 
ATOM      7  O   UNL d   1       6.362  -0.305  10.091  0.00  0.00    -0.245 OA
ATOM      8  N   UNL d   1       5.757  -2.339  11.096  0.00  0.00    -0.308 N 
ATOM      9  H   UNL d   1       4.940  -2.905  11.315  0.00  0.00     0.170 HD
ATOM     10  H   UNL d   1       3.449  -1.630  10.516  0.00  0.00     0.192 HD
BRANCH   8  11
ATOM     11  C   UNL d   1       7.000  -2.881  11.495  0.00  0.00     0.037 A 
ATOM     12  C   UNL d   1       7.833  -3.486  10.554  0.00  0.00     0.045 A 
ATOM     13  C   UNL d   1       9.059  -4.020  10.948  0.00  0.00     0.050 A 
ATOM     14  C   UNL d   1       9.453  -3.950  12.284  0.00  0.00     0.016 A 
ATOM     15  C   UNL d   1       8.621  -3.344  13.226  0.00  0.00     0.003 A 
ATOM     16  C   UNL d   1       7.395  -2.810  12.831  0.00  0.00     0.029 A 
BRANCH  13  17
ATOM     17  C   UNL d   1       9.949  -4.667   9.941  0.00  0.00     0.417 C 
ATOM     18  F   UNL d   1       9.301  -5.042   8.798  0.00  0.00    -0.166 F 
ATOM     19  F   UNL d   1      10.554  -5.805  10.396  0.00  0.00    -0.166 F 
ATOM     20  F   UNL d   1      10.965  -3.851   9.536  0.00  0.00    -0.166 F 
ENDBRANCH  13  17
ENDBRANCH   8  11
ENDBRANCH   2   5
BRANCH   3  21
ATOM     21  C   UNL d   1       2.060   1.704   8.842  0.00  0.00     0.078 C 
ATOM     22  C   UNL d   1       1.494   1.673   7.627  0.00  0.00    -0.071 C 
ATOM     23  C   UNL d   1       1.172   2.913   6.841  0.00  0.00     0.054 C 
ATOM     24  C   UNL d   1       1.145   0.395   6.918  0.00  0.00     0.054 C 
ATOM     25  C   UNL d   1       1.815   2.854   5.455  0.00  0.00     0.127 C 
ATOM     26  N   UNL d   1       1.484   1.586   4.779  0.00  0.00    -0.380 N 
ATOM     27  C   UNL d   1       1.781   0.354   5.526  0.00  0.00     0.127 C 
BRANCH  26  28
ATOM     28  C   UNL d   1       1.525   1.572   3.381  0.00  0.00     0.030 A 
ATOM     29  C   UNL d   1       0.852   2.553   2.653  0.00  0.00     0.032 A 
ATOM     30  C   UNL d   1       0.894   2.540   1.259  0.00  0.00     0.038 A 
ATOM     31  C   UNL d   1       1.609   1.543   0.592  0.00  0.00     0.103 A 
ATOM     32  C   UNL d   1       2.281   0.562   1.320  0.00  0.00     0.038 A 
ATOM     33  C   UNL d   1       2.240   0.577   2.714  0.00  0.00     0.032 A 
BRANCH  31  34
ATOM     34  N   UNL d   1       1.650   1.528  -0.827  0.00  0.00    -0.116 N 
ATOM     35  O   UNL d   1       1.964   0.465  -1.415  0.00  0.00    -0.532 OA
ATOM     36  O   UNL d   1       1.373   2.579  -1.455  0.00  0.00    -0.532 OA
ENDBRANCH  31  34
ENDBRANCH  26  28
ENDBRANCH   3  21
TORSDOF 6
ENDMDL
MODEL 6
REMARK VINA RESULT:      -7.1     18.269     21.205
REMARK  6 active torsions:
REMARK  status: ('A' for Active; 'I' for Inactive)
REMARK    1  A    between atoms: N_8  and  C_18 
REMARK    2  A    between atoms: N_9  and  N_11 
REMARK       I    between atoms: N_9  and  C_22 
REMARK    3  A    between atoms: N_10  and  C_25 
REMARK       I    between atoms: N_11  and  C_27 
REMARK    4  A    between atoms: N_12  and  C_26 
REMARK       I    between atoms: N_12  and  C_27 
REMARK    5  A    between atoms: C_19  and  C_22 
REMARK    6  A    between atoms: C_28  and  C_33 
ROOT
ATOM      1  O   UNL d   1       6.780  -3.603   8.236  0.00  0.00    -0.267 OA
ATOM      2  N   UNL d   1       7.957  -3.274  10.211  0.00  0.00    -0.263 N 
ATOM      3  C   UNL d   1       7.261  -2.866   9.091  0.00  0.00     0.260 C 
ATOM      4  H   UNL d   1       8.343  -2.644  10.905  0.00  0.00     0.190 HD
ENDROOT
BRANCH   2   5
ATOM      5  N   UNL d   1       8.147  -4.617  10.421  0.00  0.00    -0.248 N 
ATOM      6  C   UNL d   1       9.442  -5.100  10.610  0.00  0.00     0.339 C 
ATOM      7  O   UNL d   1      10.437  -4.380  10.600  0.00  0.00    -0.245 OA
ATOM      8  N   UNL d   1       9.417  -6.483  10.807  0.00  0.00    -0.308 N 
ATOM      9  H   UNL d   1       8.502  -6.928  10.787  0.00  0.00     0.170 HD
ATOM     10  H   UNL d   1       7.322  -5.205  10.434  0.00  0.00     0.192 HD
BRANCH   8  11
ATOM     11  C   UNL d   1      10.512  -7.349  11.033  0.00  0.00     0.037 A 
ATOM     12  C   UNL d   1      10.931  -7.620  12.336  0.00  0.00     0.045 A 
ATOM     13  C   UNL d   1      12.011  -8.474  12.557  0.00  0.00     0.050 A 
ATOM     14  C   UNL d   1      12.672  -9.057  11.477  0.00  0.00     0.016 A 
ATOM     15  C   UNL d   1      12.253  -8.788  10.175  0.00  0.00     0.003 A 
ATOM     16  C   UNL d   1      11.173  -7.934   9.953  0.00  0.00     0.029 A 
BRANCH  13  17
ATOM     17  C   UNL d   1      12.459  -8.762  13.951  0.00  0.00     0.417 C 
ATOM     18  F   UNL d   1      13.654  -9.422  14.016  0.00  0.00    -0.166 F 
ATOM     19  F   UNL d   1      11.585  -9.540  14.656  0.00  0.00    -0.166 F 
ATOM     20  F   UNL d   1      12.623  -7.630  14.695  0.00  0.00    -0.166 F 
ENDBRANCH  13  17
ENDBRANCH   8  11
ENDBRANCH   2   5
BRANCH   3  21
ATOM     21  C   UNL d   1       7.152  -1.386   9.029  0.00  0.00     0.078 C 
ATOM     22  C   UNL d   1       6.211  -0.747   9.738  0.00  0.00    -0.071 C 
ATOM     23  C   UNL d   1       6.045   0.747   9.721  0.00  0.00     0.054 C 
ATOM     24  C   UNL d   1       5.212  -1.460  10.604  0.00  0.00     0.054 C 
ATOM     25  C   UNL d   1       4.612   1.125   9.342  0.00  0.00     0.127 C 
ATOM     26  N   UNL d   1       3.642   0.401  10.183  0.00  0.00    -0.380 N 
ATOM     27  C   UNL d   1       3.782  -1.062  10.227  0.00  0.00     0.127 C 
BRANCH  26  28
ATOM     28  C   UNL d   1       2.378   0.977  10.349  0.00  0.00     0.030 A 
ATOM     29  C   UNL d   1       1.294   0.185  10.730  0.00  0.00     0.032 A 
ATOM     30  C   UNL d   1       0.035   0.758  10.896  0.00  0.00     0.038 A 
ATOM     31  C   UNL d   1      -0.143   2.126  10.680  0.00  0.00     0.103 A 
ATOM     32  C   UNL d   1       0.939   2.918  10.299  0.00  0.00     0.038 A 
ATOM     33  C   UNL d   1       2.200   2.344  10.134  0.00  0.00     0.032 A 
BRANCH  31  34
ATOM     34  N   UNL d   1      -1.426   2.710  10.848  0.00  0.00    -0.116 N 
ATOM     35  O   UNL d   1      -2.013   3.188   9.847  0.00  0.00    -0.532 OA
ATOM     36  O   UNL d   1      -1.939   2.734  11.994  0.00  0.00    -0.532 OA
ENDBRANCH  31  34
ENDBRANCH  26  28
ENDBRANCH   3  21
TORSDOF 6
ENDMDL
MODEL 7
REMARK VINA RESULT:      -7.1     14.470     16.001
REMARK  6 active torsions:
REMARK  status: ('A' for Active; 'I' for Inactive)
REMARK    1  A    between atoms: N_8  and  C_18 
REMARK    2  A    between atoms: N_9  and  N_11 
REMARK       I    between atoms: N_9  and  C_22 
REMARK    3  A    between atoms: N_10  and  C_25 
REMARK       I    between atoms: N_11  and  C_27 
REMARK    4  A    between atoms: N_12  and  C_26 
REMARK       I    between atoms: N_12  and  C_27 
REMARK    5  A    between atoms: C_19  and  C_22 
REMARK    6  A    between atoms: C_28  and  C_33 
ROOT
ATOM      1  O   UNL d   1       2.619   1.168  10.166  0.00  0.00    -0.267 OA
ATOM      2  N   UNL d   1       4.652   1.579   9.121  0.00  0.00    -0.263 N 
ATOM      3  C   UNL d   1       3.282   1.670   9.263  0.00  0.00     0.260 C 
ATOM      4  H   UNL d   1       5.179   2.005   8.366  0.00  0.00     0.190 HD
ENDROOT
BRANCH   2   5
ATOM      5  N   UNL d   1       5.371   0.872  10.053  0.00  0.00    -0.248 N 
ATOM      6  C   UNL d   1       5.472  -0.513   9.927  0.00  0.00     0.339 C 
ATOM      7  O   UNL d   1       4.947  -1.147   9.014  0.00  0.00    -0.245 OA
ATOM      8  N   UNL d   1       6.241  -1.038  10.969  0.00  0.00    -0.308 N 
ATOM      9  H   UNL d   1       6.604  -0.370  11.646  0.00  0.00     0.170 HD
ATOM     10  H   UNL d   1       5.806   1.400  10.800  0.00  0.00     0.192 HD
BRANCH   8  11
ATOM     11  C   UNL d   1       6.580  -2.390  11.204  0.00  0.00     0.037 A 
ATOM     12  C   UNL d   1       7.919  -2.764  11.322  0.00  0.00     0.045 A 
ATOM     13  C   UNL d   1       8.252  -4.099  11.554  0.00  0.00     0.050 A 
ATOM     14  C   UNL d   1       7.247  -5.059  11.668  0.00  0.00     0.016 A 
ATOM     15  C   UNL d   1       5.909  -4.685  11.551  0.00  0.00     0.003 A 
ATOM     16  C   UNL d   1       5.575  -3.351  11.319  0.00  0.00     0.029 A 
BRANCH  13  17
ATOM     17  C   UNL d   1       9.684  -4.498  11.679  0.00  0.00     0.417 C 
ATOM     18  F   UNL d   1      10.441  -4.169  10.591  0.00  0.00    -0.166 F 
ATOM     19  F   UNL d   1       9.864  -5.843  11.844  0.00  0.00    -0.166 F 
ATOM     20  F   UNL d   1      10.301  -3.914  12.746  0.00  0.00    -0.166 F 
ENDBRANCH  13  17
ENDBRANCH   8  11
ENDBRANCH   2   5
BRANCH   3  21
ATOM     21  C   UNL d   1       2.675   2.469   8.169  0.00  0.00     0.078 C 
ATOM     22  C   UNL d   1       2.228   1.865   7.059  0.00  0.00    -0.071 C 
ATOM     23  C   UNL d   1       1.603   2.613   5.914  0.00  0.00     0.054 C 
ATOM     24  C   UNL d   1       2.324   0.382   6.837  0.00  0.00     0.054 C 
ATOM     25  C   UNL d   1       2.327   2.293   4.605  0.00  0.00     0.127 C 
ATOM     26  N   UNL d   1       2.435   0.837   4.410  0.00  0.00    -0.380 N 
ATOM     27  C   UNL d   1       3.035   0.075   5.517  0.00  0.00     0.127 C 
BRANCH  26  28
ATOM     28  C   UNL d   1       2.573   0.370   3.098  0.00  0.00     0.030 A 
ATOM     29  C   UNL d   1       3.335  -0.770   2.840  0.00  0.00     0.032 A 
ATOM     30  C   UNL d   1       3.472  -1.236   1.533  0.00  0.00     0.038 A 
ATOM     31  C   UNL d   1       2.848  -0.560   0.483  0.00  0.00     0.103 A 
ATOM     32  C   UNL d   1       2.087   0.579   0.741  0.00  0.00     0.038 A 
ATOM     33  C   UNL d   1       1.949   1.044   2.049  0.00  0.00     0.032 A 
BRANCH  31  34
ATOM     34  N   UNL d   1       2.988  -1.033  -0.849  0.00  0.00    -0.116 N 
ATOM     35  O   UNL d   1       4.069  -1.568  -1.193  0.00  0.00    -0.532 OA
ATOM     36  O   UNL d   1       2.027  -0.902  -1.645  0.00  0.00    -0.532 OA
ENDBRANCH  31  34
ENDBRANCH  26  28
ENDBRANCH   3  21
TORSDOF 6
ENDMDL
MODEL 8
REMARK VINA RESULT:      -7.0     14.444     15.971
REMARK  6 active torsions:
REMARK  status: ('A' for Active; 'I' for Inactive)
REMARK    1  A    between atoms: N_8  and  C_18 
REMARK    2  A    between atoms: N_9  and  N_11 
REMARK       I    between atoms: N_9  and  C_22 
REMARK    3  A    between atoms: N_10  and  C_25 
REMARK       I    between atoms: N_11  and  C_27 
REMARK    4  A    between atoms: N_12  and  C_26 
REMARK       I    between atoms: N_12  and  C_27 
REMARK    5  A    between atoms: C_19  and  C_22 
REMARK    6  A    between atoms: C_28  and  C_33 
ROOT
ATOM      1  O   UNL d   1       2.574   1.323   9.787  0.00  0.00    -0.267 OA
ATOM      2  N   UNL d   1       4.586   1.787   8.725  0.00  0.00    -0.263 N 
ATOM      3  C   UNL d   1       3.215   1.834   8.874  0.00  0.00     0.260 C 
ATOM      4  H   UNL d   1       5.094   2.220   7.961  0.00  0.00     0.190 HD
ENDROOT
BRANCH   2   5
ATOM      5  N   UNL d   1       5.333   1.118   9.662  0.00  0.00    -0.248 N 
ATOM      6  C   UNL d   1       5.562  -0.249   9.502  0.00  0.00     0.339 C 
ATOM      7  O   UNL d   1       5.126  -0.897   8.553  0.00  0.00    -0.245 OA
ATOM      8  N   UNL d   1       6.339  -0.735  10.556  0.00  0.00    -0.308 N 
ATOM      9  H   UNL d   1       6.619  -0.060  11.263  0.00  0.00     0.170 HD
ATOM     10  H   UNL d   1       5.695   1.659  10.439  0.00  0.00     0.192 HD
BRANCH   8  11
ATOM     11  C   UNL d   1       6.789  -2.060  10.765  0.00  0.00     0.037 A 
ATOM     12  C   UNL d   1       6.450  -2.736  11.937  0.00  0.00     0.045 A 
ATOM     13  C   UNL d   1       6.894  -4.042  12.142  0.00  0.00     0.050 A 
ATOM     14  C   UNL d   1       7.678  -4.672  11.176  0.00  0.00     0.016 A 
ATOM     15  C   UNL d   1       8.017  -3.996  10.004  0.00  0.00     0.003 A 
ATOM     16  C   UNL d   1       7.573  -2.690   9.798  0.00  0.00     0.029 A 
BRANCH  13  17
ATOM     17  C   UNL d   1       6.531  -4.764  13.395  0.00  0.00     0.417 C 
ATOM     18  F   UNL d   1       6.695  -4.015  14.526  0.00  0.00    -0.166 F 
ATOM     19  F   UNL d   1       7.269  -5.894  13.609  0.00  0.00    -0.166 F 
ATOM     20  F   UNL d   1       5.229  -5.171  13.410  0.00  0.00    -0.166 F 
ENDBRANCH  13  17
ENDBRANCH   8  11
ENDBRANCH   2   5
BRANCH   3  21
ATOM     21  C   UNL d   1       2.575   2.597   7.773  0.00  0.00     0.078 C 
ATOM     22  C   UNL d   1       2.131   1.962   6.679  0.00  0.00    -0.071 C 
ATOM     23  C   UNL d   1       1.475   2.672   5.528  0.00  0.00     0.054 C 
ATOM     24  C   UNL d   1       2.264   0.478   6.483  0.00  0.00     0.054 C 
ATOM     25  C   UNL d   1       2.192   2.347   4.216  0.00  0.00     0.127 C 
ATOM     26  N   UNL d   1       2.337   0.891   4.047  0.00  0.00    -0.380 N 
ATOM     27  C   UNL d   1       2.968   0.165   5.160  0.00  0.00     0.127 C 
BRANCH  26  28
ATOM     28  C   UNL d   1       2.472   0.404   2.742  0.00  0.00     0.030 A 
ATOM     29  C   UNL d   1       1.859   1.071   1.681  0.00  0.00     0.032 A 
ATOM     30  C   UNL d   1       1.994   0.587   0.381  0.00  0.00     0.038 A 
ATOM     31  C   UNL d   1       2.743  -0.566   0.140  0.00  0.00     0.103 A 
ATOM     32  C   UNL d   1       3.356  -1.233   1.200  0.00  0.00     0.038 A 
ATOM     33  C   UNL d   1       3.221  -0.748   2.501  0.00  0.00     0.032 A 
BRANCH  31  34
ATOM     34  N   UNL d   1       2.881  -1.060  -1.184  0.00  0.00    -0.116 N 
ATOM     35  O   UNL d   1       2.086  -1.942  -1.589  0.00  0.00    -0.532 OA
ATOM     36  O   UNL d   1       3.794  -0.601  -1.913  0.00  0.00    -0.532 OA
ENDBRANCH  31  34
ENDBRANCH  26  28
ENDBRANCH   3  21
TORSDOF 6
ENDMDL
MODEL 9
REMARK VINA RESULT:      -7.0     17.839     20.942
REMARK  6 active torsions:
REMARK  status: ('A' for Active; 'I' for Inactive)
REMARK    1  A    between atoms: N_8  and  C_18 
REMARK    2  A    between atoms: N_9  and  N_11 
REMARK       I    between atoms: N_9  and  C_22 
REMARK    3  A    between atoms: N_10  and  C_25 
REMARK       I    between atoms: N_11  and  C_27 
REMARK    4  A    between atoms: N_12  and  C_26 
REMARK       I    between atoms: N_12  and  C_27 
REMARK    5  A    between atoms: C_19  and  C_22 
REMARK    6  A    between atoms: C_28  and  C_33 
ROOT
ATOM      1  O   UNL d   1      11.180  -7.527  -0.952  0.00  0.00    -0.267 OA
ATOM      2  N   UNL d   1      12.259  -7.525   1.104  0.00  0.00    -0.263 N 
ATOM      3  C   UNL d   1      11.932  -8.045  -0.132  0.00  0.00     0.260 C 
ATOM      4  H   UNL d   1      12.886  -7.972   1.765  0.00  0.00     0.190 HD
ENDROOT
BRANCH   2   5
ATOM      5  N   UNL d   1      11.715  -6.324   1.484  0.00  0.00    -0.248 N 
ATOM      6  C   UNL d   1      11.549  -6.050   2.841  0.00  0.00     0.339 C 
ATOM      7  O   UNL d   1      11.869  -6.836   3.730  0.00  0.00    -0.245 OA
ATOM      8  N   UNL d   1      10.985  -4.783   3.013  0.00  0.00    -0.308 N 
ATOM      9  H   UNL d   1      10.781  -4.258   2.165  0.00  0.00     0.170 HD
ATOM     10  H   UNL d   1      11.459  -5.677   0.746  0.00  0.00     0.192 HD
BRANCH   8  11
ATOM     11  C   UNL d   1      10.659  -4.133   4.226  0.00  0.00     0.037 A 
ATOM     12  C   UNL d   1       9.476  -4.452   4.892  0.00  0.00     0.045 A 
ATOM     13  C   UNL d   1       9.156  -3.811   6.089  0.00  0.00     0.050 A 
ATOM     14  C   UNL d   1      10.018  -2.852   6.619  0.00  0.00     0.016 A 
ATOM     15  C   UNL d   1      11.201  -2.533   5.953  0.00  0.00     0.003 A 
ATOM     16  C   UNL d   1      11.522  -3.174   4.757  0.00  0.00     0.029 A 
BRANCH  13  17
ATOM     17  C   UNL d   1       7.890  -4.151   6.801  0.00  0.00     0.417 C 
ATOM     18  F   UNL d   1       7.154  -3.058   7.163  0.00  0.00    -0.166 F 
ATOM     19  F   UNL d   1       8.085  -4.848   7.960  0.00  0.00    -0.166 F 
ATOM     20  F   UNL d   1       7.054  -4.923   6.047  0.00  0.00    -0.166 F 
ENDBRANCH  13  17
ENDBRANCH   8  11
ENDBRANCH   2   5
BRANCH   3  21
ATOM     21  C   UNL d   1      12.611  -9.343  -0.372  0.00  0.00     0.078 C 
ATOM     22  C   UNL d   1      13.826  -9.377  -0.938  0.00  0.00    -0.071 C 
ATOM     23  C   UNL d   1      14.569 -10.655  -1.209  0.00  0.00     0.054 C 
ATOM     24  C   UNL d   1      14.559  -8.141  -1.378  0.00  0.00     0.054 C 
ATOM     25  C   UNL d   1      14.968 -10.742  -2.683  0.00  0.00     0.127 C 
ATOM     26  N   UNL d   1      15.665  -9.516  -3.109  0.00  0.00    -0.380 N 
ATOM     27  C   UNL d   1      14.967  -8.247  -2.850  0.00  0.00     0.127 C 
BRANCH  26  28
ATOM     28  C   UNL d   1      16.533  -9.614  -4.202  0.00  0.00     0.030 A 
ATOM     29  C   UNL d   1      17.912  -9.666  -3.996  0.00  0.00     0.032 A 
ATOM     30  C   UNL d   1      18.777  -9.766  -5.084  0.00  0.00     0.038 A 
ATOM     31  C   UNL d   1      18.263  -9.811  -6.381  0.00  0.00     0.103 A 
ATOM     32  C   UNL d   1      16.886  -9.759  -6.588  0.00  0.00     0.038 A 
ATOM     33  C   UNL d   1      16.020  -9.660  -5.498  0.00  0.00     0.032 A 
BRANCH  31  34
ATOM     34  N   UNL d   1      19.144  -9.911  -7.491  0.00  0.00    -0.116 N 
ATOM     35  O   UNL d   1      20.252  -9.324  -7.443  0.00  0.00    -0.532 OA
ATOM     36  O   UNL d   1      18.790 -10.582  -8.491  0.00  0.00    -0.532 OA
ENDBRANCH  31  34
ENDBRANCH  26  28
ENDBRANCH   3  21
TORSDOF 6
ENDMDL
