MODEL 1
REMARK VINA RESULT:      -6.4      0.000      0.000
REMARK  1 active torsions:
REMARK  status: ('A' for Active; 'I' for Inactive)
REMARK    1  A    between atoms: O_1  and  C_13 
ROOT
ATOM      1  O   UNL d   1       0.696   3.391   9.764  0.00  0.00    -0.298 OA
ATOM      2  C   UNL d   1       5.207  -1.148  10.031  0.00  0.00    -0.005 C 
ATOM      3  C   UNL d   1       3.850  -1.046  10.795  0.00  0.00    -0.002 C 
ATOM      4  C   UNL d   1       6.041  -2.268  10.663  0.00  0.00     0.001 C 
ATOM      5  C   UNL d   1       5.342  -3.640  10.603  0.00  0.00    -0.014 C 
ATOM      6  C   UNL d   1       2.941   0.119  10.251  0.00  0.00    -0.036 C 
ATOM      7  C   UNL d   1       3.766   1.445  10.269  0.00  0.00     0.001 C 
ATOM      8  C   UNL d   1       3.133  -2.421  10.893  0.00  0.00     0.007 C 
ATOM      9  C   UNL d   1       4.043  -3.548  11.415  0.00  0.00     0.012 C 
ATOM     10  C   UNL d   1       5.956   0.190  10.068  0.00  0.00     0.006 C 
ATOM     11  C   UNL d   1       7.438  -2.556  10.119  0.00  0.00     0.008 C 
ATOM     12  C   UNL d   1       6.441  -4.509  11.243  0.00  0.00     0.126 C 
ATOM     13  C   UNL d   1       5.105   1.333   9.528  0.00  0.00     0.006 C 
ATOM     14  C   UNL d   1       7.747  -3.978  10.621  0.00  0.00     0.033 C 
ATOM     15  C   UNL d   1       1.696   0.295  11.178  0.00  0.00     0.017 C 
ATOM     16  C   UNL d   1       5.024  -4.141   9.171  0.00  0.00     0.018 C 
ATOM     17  C   UNL d   1       2.435  -0.202   8.820  0.00  0.00     0.016 C 
ATOM     18  C   UNL d   1       2.967   2.642   9.729  0.00  0.00     0.083 C 
ATOM     19  C   UNL d   1       1.233   1.735  11.402  0.00  0.00     0.079 C 
ATOM     20  C   UNL d   1       1.545   2.636  10.237  0.00  0.00     0.127 C 
ENDROOT
BRANCH  12  21
ATOM     21  O   UNL d   1       6.266  -5.892  10.995  0.00  0.00    -0.395 OA
ATOM     22  H   UNL d   1       5.341  -6.053  10.746  0.00  0.00     0.210 HD
ENDBRANCH  12  21
TORSDOF 1
ENDMDL
MODEL 2
REMARK VINA RESULT:      -6.1      2.282      3.598
REMARK  1 active torsions:
REMARK  status: ('A' for Active; 'I' for Inactive)
REMARK    1  A    between atoms: O_1  and  C_13 
ROOT
ATOM      1  O   UNL d   1      -3.473   1.481  10.476  0.00  0.00    -0.298 OA
ATOM      2  C   UNL d   1       2.883   1.136   9.760  0.00  0.00    -0.005 C 
ATOM      3  C   UNL d   1       1.903   0.137  10.450  0.00  0.00    -0.002 C 
ATOM      4  C   UNL d   1       4.319   0.734  10.114  0.00  0.00     0.001 C 
ATOM      5  C   UNL d   1       4.671  -0.693   9.651  0.00  0.00    -0.014 C 
ATOM      6  C   UNL d   1       0.393   0.501  10.189  0.00  0.00    -0.036 C 
ATOM      7  C   UNL d   1       0.159   1.988  10.606  0.00  0.00     0.001 C 
ATOM      8  C   UNL d   1       2.264  -1.342  10.136  0.00  0.00     0.007 C 
ATOM      9  C   UNL d   1       3.747  -1.673  10.386  0.00  0.00     0.012 C 
ATOM     10  C   UNL d   1       2.587   2.577  10.195  0.00  0.00     0.006 C 
ATOM     11  C   UNL d   1       5.480   1.575   9.588  0.00  0.00     0.008 C 
ATOM     12  C   UNL d   1       6.145  -0.743  10.093  0.00  0.00     0.126 C 
ATOM     13  C   UNL d   1       1.136   2.963   9.936  0.00  0.00     0.006 C 
ATOM     14  C   UNL d   1       6.699   0.643   9.708  0.00  0.00     0.033 C 
ATOM     15  C   UNL d   1      -0.530  -0.411  11.061  0.00  0.00     0.017 C 
ATOM     16  C   UNL d   1       4.559  -0.922   8.122  0.00  0.00     0.018 C 
ATOM     17  C   UNL d   1       0.023   0.276   8.700  0.00  0.00     0.016 C 
ATOM     18  C   UNL d   1      -1.287   2.446  10.365  0.00  0.00     0.083 C 
ATOM     19  C   UNL d   1      -1.776   0.262  11.638  0.00  0.00     0.079 C 
ATOM     20  C   UNL d   1      -2.283   1.386  10.774  0.00  0.00     0.127 C 
ENDROOT
BRANCH  12  21
ATOM     21  O   UNL d   1       6.872  -1.789   9.475  0.00  0.00    -0.395 OA
ATOM     22  H   UNL d   1       6.965  -2.523  10.104  0.00  0.00     0.210 HD
ENDBRANCH  12  21
TORSDOF 1
ENDMDL
MODEL 3
REMARK VINA RESULT:      -6.0      2.762      6.848
REMARK  1 active torsions:
REMARK  status: ('A' for Active; 'I' for Inactive)
REMARK    1  A    between atoms: O_1  and  C_13 
ROOT
ATOM      1  O   UNL d   1       7.166   0.321   8.847  0.00  0.00    -0.298 OA
ATOM      2  C   UNL d   1       0.919   0.175  10.256  0.00  0.00    -0.005 C 
ATOM      3  C   UNL d   1       1.821   1.383   9.849  0.00  0.00    -0.002 C 
ATOM      4  C   UNL d   1      -0.421   0.717  10.764  0.00  0.00     0.001 C 
ATOM      5  C   UNL d   1      -1.170   1.550   9.706  0.00  0.00    -0.014 C 
ATOM      6  C   UNL d   1       3.248   0.929   9.362  0.00  0.00    -0.036 C 
ATOM      7  C   UNL d   1       3.884   0.020  10.462  0.00  0.00     0.001 C 
ATOM      8  C   UNL d   1       1.093   2.350   8.874  0.00  0.00     0.007 C 
ATOM      9  C   UNL d   1      -0.305   2.771   9.363  0.00  0.00     0.012 C 
ATOM     10  C   UNL d   1       1.609  -0.686  11.321  0.00  0.00     0.006 C 
ATOM     11  C   UNL d   1      -1.482  -0.264  11.259  0.00  0.00     0.008 C 
ATOM     12  C   UNL d   1      -2.451   1.870  10.498  0.00  0.00     0.126 C 
ATOM     13  C   UNL d   1       2.986  -1.156  10.867  0.00  0.00     0.006 C 
ATOM     14  C   UNL d   1      -2.790   0.547  11.211  0.00  0.00     0.033 C 
ATOM     15  C   UNL d   1       4.161   2.181   9.161  0.00  0.00     0.017 C 
ATOM     16  C   UNL d   1      -1.518   0.781   8.406  0.00  0.00     0.018 C 
ATOM     17  C   UNL d   1       3.153   0.179   8.007  0.00  0.00     0.016 C 
ATOM     18  C   UNL d   1       5.276  -0.496  10.065  0.00  0.00     0.083 C 
ATOM     19  C   UNL d   1       5.627   2.005   9.561  0.00  0.00     0.079 C 
ATOM     20  C   UNL d   1       6.105   0.585   9.412  0.00  0.00     0.127 C 
ENDROOT
BRANCH  12  21
ATOM     21  O   UNL d   1      -3.515   2.310   9.674  0.00  0.00    -0.395 OA
ATOM     22  H   UNL d   1      -4.082   2.909  10.186  0.00  0.00     0.210 HD
ENDBRANCH  12  21
TORSDOF 1
ENDMDL
MODEL 4
REMARK VINA RESULT:      -5.8      1.354      6.687
REMARK  1 active torsions:
REMARK  status: ('A' for Active; 'I' for Inactive)
REMARK    1  A    between atoms: O_1  and  C_13 
ROOT
ATOM      1  O   UNL d   1       8.577  -6.018  12.030  0.00  0.00    -0.298 OA
ATOM      2  C   UNL d   1       3.803  -1.979  10.639  0.00  0.00    -0.005 C 
ATOM      3  C   UNL d   1       5.291  -1.676  11.002  0.00  0.00    -0.002 C 
ATOM      4  C   UNL d   1       3.014  -0.667  10.682  0.00  0.00     0.001 C 
ATOM      5  C   UNL d   1       3.552   0.387   9.695  0.00  0.00    -0.014 C 
ATOM      6  C   UNL d   1       6.177  -2.977  11.038  0.00  0.00    -0.036 C 
ATOM      7  C   UNL d   1       5.503  -4.013  11.993  0.00  0.00     0.001 C 
ATOM      8  C   UNL d   1       5.879  -0.529  10.133  0.00  0.00     0.007 C 
ATOM      9  C   UNL d   1       4.992   0.729  10.102  0.00  0.00     0.012 C 
ATOM     10  C   UNL d   1       3.209  -3.016  11.600  0.00  0.00     0.006 C 
ATOM     11  C   UNL d   1       1.514  -0.689  10.396  0.00  0.00     0.008 C 
ATOM     12  C   UNL d   1       2.529   1.511   9.946  0.00  0.00     0.126 C 
ATOM     13  C   UNL d   1       4.037  -4.296  11.640  0.00  0.00     0.006 C 
ATOM     14  C   UNL d   1       1.179   0.772  10.047  0.00  0.00     0.033 C 
ATOM     15  C   UNL d   1       7.596  -2.636  11.596  0.00  0.00     0.017 C 
ATOM     16  C   UNL d   1       3.522  -0.047   8.207  0.00  0.00     0.018 C 
ATOM     17  C   UNL d   1       6.349  -3.565   9.612  0.00  0.00     0.016 C 
ATOM     18  C   UNL d   1       6.285  -5.333  12.076  0.00  0.00     0.083 C 
ATOM     19  C   UNL d   1       8.230  -3.698  12.495  0.00  0.00     0.079 C 
ATOM     20  C   UNL d   1       7.775  -5.093  12.159  0.00  0.00     0.127 C 
ENDROOT
BRANCH  12  21
ATOM     21  O   UNL d   1       2.517   2.486   8.920  0.00  0.00    -0.395 OA
ATOM     22  H   UNL d   1       2.460   2.039   8.060  0.00  0.00     0.210 HD
ENDBRANCH  12  21
TORSDOF 1
ENDMDL
MODEL 5
REMARK VINA RESULT:      -5.5      7.509     10.670
REMARK  1 active torsions:
REMARK  status: ('A' for Active; 'I' for Inactive)
REMARK    1  A    between atoms: O_1  and  C_13 
ROOT
ATOM      1  O   UNL d   1       3.456  -3.255  -0.899  0.00  0.00    -0.298 OA
ATOM      2  C   UNL d   1       1.736   1.224   3.345  0.00  0.00    -0.005 C 
ATOM      3  C   UNL d   1       1.786   1.295   1.787  0.00  0.00    -0.002 C 
ATOM      4  C   UNL d   1       1.539   2.642   3.892  0.00  0.00     0.001 C 
ATOM      5  C   UNL d   1       0.238   3.300   3.392  0.00  0.00    -0.014 C 
ATOM      6  C   UNL d   1       2.042  -0.113   1.130  0.00  0.00    -0.036 C 
ATOM      7  C   UNL d   1       3.327  -0.734   1.765  0.00  0.00     0.001 C 
ATOM      8  C   UNL d   1       0.566   2.059   1.200  0.00  0.00     0.007 C 
ATOM      9  C   UNL d   1       0.327   3.427   1.865  0.00  0.00     0.012 C 
ATOM     10  C   UNL d   1       3.015   0.587   3.903  0.00  0.00     0.006 C 
ATOM     11  C   UNL d   1       1.488   2.858   5.403  0.00  0.00     0.008 C 
ATOM     12  C   UNL d   1       0.323   4.635   4.155  0.00  0.00     0.126 C 
ATOM     13  C   UNL d   1       3.277  -0.787   3.298  0.00  0.00     0.006 C 
ATOM     14  C   UNL d   1       0.812   4.232   5.560  0.00  0.00     0.033 C 
ATOM     15  C   UNL d   1       2.277   0.055  -0.406  0.00  0.00     0.017 C 
ATOM     16  C   UNL d   1      -1.058   2.541   3.775  0.00  0.00     0.018 C 
ATOM     17  C   UNL d   1       0.817  -1.044   1.330  0.00  0.00     0.016 C 
ATOM     18  C   UNL d   1       3.646  -2.127   1.202  0.00  0.00     0.083 C 
ATOM     19  C   UNL d   1       3.327  -0.871  -1.022  0.00  0.00     0.079 C 
ATOM     20  C   UNL d   1       3.446  -2.183  -0.294  0.00  0.00     0.127 C 
ENDROOT
BRANCH  12  21
ATOM     21  O   UNL d   1      -0.914   5.321   4.207  0.00  0.00    -0.395 OA
ATOM     22  H   UNL d   1      -1.497   4.973   3.513  0.00  0.00     0.210 HD
ENDBRANCH  12  21
TORSDOF 1
ENDMDL
MODEL 6
REMARK VINA RESULT:      -5.4      2.109      6.087
REMARK  1 active torsions:
REMARK  status: ('A' for Active; 'I' for Inactive)
REMARK    1  A    between atoms: O_1  and  C_13 
ROOT
ATOM      1  O   UNL d   1       8.752  -3.337   7.300  0.00  0.00    -0.298 OA
ATOM      2  C   UNL d   1       4.030   0.068   9.974  0.00  0.00    -0.005 C 
ATOM      3  C   UNL d   1       3.970  -0.986   8.825  0.00  0.00    -0.002 C 
ATOM      4  C   UNL d   1       2.683   0.795  10.039  0.00  0.00     0.001 C 
ATOM      5  C   UNL d   1       1.502  -0.156  10.311  0.00  0.00    -0.014 C 
ATOM      6  C   UNL d   1       5.334  -1.753   8.642  0.00  0.00    -0.036 C 
ATOM      7  C   UNL d   1       6.476  -0.702   8.463  0.00  0.00     0.001 C 
ATOM      8  C   UNL d   1       2.730  -1.915   8.951  0.00  0.00     0.007 C 
ATOM      9  C   UNL d   1       1.410  -1.146   9.141  0.00  0.00     0.012 C 
ATOM     10  C   UNL d   1       5.183   1.054   9.750  0.00  0.00     0.006 C 
ATOM     11  C   UNL d   1       2.486   1.909  11.066  0.00  0.00     0.008 C 
ATOM     12  C   UNL d   1       0.359   0.874  10.374  0.00  0.00     0.126 C 
ATOM     13  C   UNL d   1       6.520   0.339   9.589  0.00  0.00     0.006 C 
ATOM     14  C   UNL d   1       0.957   2.047  11.176  0.00  0.00     0.033 C 
ATOM     15  C   UNL d   1       5.273  -2.644   7.360  0.00  0.00     0.017 C 
ATOM     16  C   UNL d   1       1.597  -0.939  11.646  0.00  0.00     0.018 C 
ATOM     17  C   UNL d   1       5.612  -2.676   9.857  0.00  0.00     0.016 C 
ATOM     18  C   UNL d   1       7.857  -1.357   8.302  0.00  0.00     0.083 C 
ATOM     19  C   UNL d   1       6.565  -2.729   6.547  0.00  0.00     0.079 C 
ATOM     20  C   UNL d   1       7.798  -2.564   7.395  0.00  0.00     0.127 C 
ENDROOT
BRANCH  12  21
ATOM     21  O   UNL d   1      -0.812   0.364  10.984  0.00  0.00    -0.395 OA
ATOM     22  H   UNL d   1      -1.507   1.040  10.946  0.00  0.00     0.210 HD
ENDBRANCH  12  21
TORSDOF 1
ENDMDL
MODEL 7
REMARK VINA RESULT:      -5.3      3.824      6.179
REMARK  1 active torsions:
REMARK  status: ('A' for Active; 'I' for Inactive)
REMARK    1  A    between atoms: O_1  and  C_13 
ROOT
ATOM      1  O   UNL d   1      -5.674   2.483  10.803  0.00  0.00    -0.298 OA
ATOM      2  C   UNL d   1       0.486   2.173   9.074  0.00  0.00    -0.005 C 
ATOM      3  C   UNL d   1      -0.143   2.475  10.470  0.00  0.00    -0.002 C 
ATOM      4  C   UNL d   1       1.981   2.503   9.130  0.00  0.00     0.001 C 
ATOM      5  C   UNL d   1       2.735   1.681  10.193  0.00  0.00    -0.014 C 
ATOM      6  C   UNL d   1      -1.696   2.218  10.497  0.00  0.00    -0.036 C 
ATOM      7  C   UNL d   1      -2.355   3.022   9.332  0.00  0.00     0.001 C 
ATOM      8  C   UNL d   1       0.638   1.782  11.622  0.00  0.00     0.007 C 
ATOM      9  C   UNL d   1       2.155   2.037  11.569  0.00  0.00     0.012 C 
ATOM     10  C   UNL d   1      -0.219   2.976   7.974  0.00  0.00     0.006 C 
ATOM     11  C   UNL d   1       2.832   2.326   7.875  0.00  0.00     0.008 C 
ATOM     12  C   UNL d   1       4.164   2.198   9.944  0.00  0.00     0.126 C 
ATOM     13  C   UNL d   1      -1.723   2.730   7.964  0.00  0.00     0.006 C 
ATOM     14  C   UNL d   1       4.275   2.265   8.408  0.00  0.00     0.033 C 
ATOM     15  C   UNL d   1      -2.293   2.723  11.850  0.00  0.00     0.017 C 
ATOM     16  C   UNL d   1       2.674   0.146   9.986  0.00  0.00     0.018 C 
ATOM     17  C   UNL d   1      -2.004   0.702  10.372  0.00  0.00     0.016 C 
ATOM     18  C   UNL d   1      -3.876   2.813   9.260  0.00  0.00     0.083 C 
ATOM     19  C   UNL d   1      -3.674   3.373  11.766  0.00  0.00     0.079 C 
ATOM     20  C   UNL d   1      -4.505   2.830  10.633  0.00  0.00     0.127 C 
ENDROOT
BRANCH  12  21
ATOM     21  O   UNL d   1       5.160   1.364  10.506  0.00  0.00    -0.395 OA
ATOM     22  H   UNL d   1       5.949   1.389   9.939  0.00  0.00     0.210 HD
ENDBRANCH  12  21
TORSDOF 1
ENDMDL
MODEL 8
REMARK VINA RESULT:      -5.2     12.180     15.349
REMARK  1 active torsions:
REMARK  status: ('A' for Active; 'I' for Inactive)
REMARK    1  A    between atoms: O_1  and  C_13 
ROOT
ATOM      1  O   UNL d   1      13.213  -8.992  10.116  0.00  0.00    -0.298 OA
ATOM      2  C   UNL d   1      14.919  -8.984  16.291  0.00  0.00    -0.005 C 
ATOM      3  C   UNL d   1      15.389  -9.914  15.128  0.00  0.00    -0.002 C 
ATOM      4  C   UNL d   1      15.402  -9.580  17.617  0.00  0.00     0.001 C 
ATOM      5  C   UNL d   1      16.935  -9.715  17.690  0.00  0.00    -0.014 C 
ATOM      6  C   UNL d   1      14.893  -9.413  13.721  0.00  0.00    -0.036 C 
ATOM      7  C   UNL d   1      13.343  -9.223  13.777  0.00  0.00     0.001 C 
ATOM      8  C   UNL d   1      16.914 -10.207  15.198  0.00  0.00     0.007 C 
ATOM      9  C   UNL d   1      17.380 -10.684  16.586  0.00  0.00     0.012 C 
ATOM     10  C   UNL d   1      13.394  -8.823  16.277  0.00  0.00     0.006 C 
ATOM     11  C   UNL d   1      15.045  -8.876  18.925  0.00  0.00     0.008 C 
ATOM     12  C   UNL d   1      17.072 -10.264  19.122  0.00  0.00     0.126 C 
ATOM     13  C   UNL d   1      12.888  -8.319  14.930  0.00  0.00     0.006 C 
ATOM     14  C   UNL d   1      16.060  -9.435  19.938  0.00  0.00     0.033 C 
ATOM     15  C   UNL d   1      15.223 -10.483  12.631  0.00  0.00     0.017 C 
ATOM     16  C   UNL d   1      17.709  -8.379  17.549  0.00  0.00     0.018 C 
ATOM     17  C   UNL d   1      15.602  -8.090  13.327  0.00  0.00     0.016 C 
ATOM     18  C   UNL d   1      12.766  -8.709  12.449  0.00  0.00     0.083 C 
ATOM     19  C   UNL d   1      14.173 -10.661  11.534  0.00  0.00     0.079 C 
ATOM     20  C   UNL d   1      13.394  -9.401  11.263  0.00  0.00     0.127 C 
ENDROOT
BRANCH  12  21
ATOM     21  O   UNL d   1      18.384 -10.144  19.638  0.00  0.00    -0.395 OA
ATOM     22  H   UNL d   1      18.934 -10.853  19.267  0.00  0.00     0.210 HD
ENDBRANCH  12  21
TORSDOF 1
ENDMDL
MODEL 9
REMARK VINA RESULT:      -5.2      3.546      6.203
REMARK  1 active torsions:
REMARK  status: ('A' for Active; 'I' for Inactive)
REMARK    1  A    between atoms: O_1  and  C_13 
ROOT
ATOM      1  O   UNL d   1      -5.802   1.818  11.159  0.00  0.00    -0.298 OA
ATOM      2  C   UNL d   1       0.436   0.466  10.618  0.00  0.00    -0.005 C 
ATOM      3  C   UNL d   1      -0.482   1.321   9.689  0.00  0.00    -0.002 C 
ATOM      4  C   UNL d   1       1.764   0.216   9.895  0.00  0.00     0.001 C 
ATOM      5  C   UNL d   1       2.506   1.518   9.539  0.00  0.00    -0.014 C 
ATOM      6  C   UNL d   1      -1.898   1.586  10.325  0.00  0.00    -0.036 C 
ATOM      7  C   UNL d   1      -2.527   0.216  10.732  0.00  0.00     0.001 C 
ATOM      8  C   UNL d   1       0.237   2.600   9.178  0.00  0.00     0.007 C 
ATOM      9  C   UNL d   1       1.624   2.319   8.572  0.00  0.00     0.012 C 
ATOM     10  C   UNL d   1      -0.248  -0.853  10.997  0.00  0.00     0.006 C 
ATOM     11  C   UNL d   1       2.837  -0.630  10.578  0.00  0.00     0.008 C 
ATOM     12  C   UNL d   1       3.776   0.919   8.907  0.00  0.00     0.126 C 
ATOM     13  C   UNL d   1      -1.613  -0.624  11.634  0.00  0.00     0.006 C 
ATOM     14  C   UNL d   1       4.131  -0.263   9.830  0.00  0.00     0.033 C 
ATOM     15  C   UNL d   1      -2.831   2.270   9.274  0.00  0.00     0.017 C 
ATOM     16  C   UNL d   1       2.877   2.404  10.756  0.00  0.00     0.018 C 
ATOM     17  C   UNL d   1      -1.781   2.531  11.551  0.00  0.00     0.016 C 
ATOM     18  C   UNL d   1      -3.908   0.375  11.388  0.00  0.00     0.083 C 
ATOM     19  C   UNL d   1      -4.296   1.834   9.302  0.00  0.00     0.079 C 
ATOM     20  C   UNL d   1      -4.750   1.404  10.672  0.00  0.00     0.127 C 
ENDROOT
BRANCH  12  21
ATOM     21  O   UNL d   1       4.838   1.849   8.812  0.00  0.00    -0.395 OA
ATOM     22  H   UNL d   1       5.531   1.479   8.241  0.00  0.00     0.210 HD
ENDBRANCH  12  21
TORSDOF 1
ENDMDL
