MODEL 1
REMARK VINA RESULT:      -6.5      0.000      0.000
REMARK  2 active torsions:
REMARK  status: ('A' for Active; 'I' for Inactive)
REMARK    1  A    between atoms: O_1  and  C_7 
REMARK    2  A    between atoms: O_2  and  C_20 
ROOT
ATOM      1  C   UNL d   1      -0.892   1.138  10.510  0.00  0.00    -0.014 C 
ATOM      2  C   UNL d   1      -0.043   0.035  11.171  0.00  0.00     0.001 C 
ATOM      3  C   UNL d   1       1.342  -0.086  10.536  0.00  0.00    -0.001 C 
ATOM      4  C   UNL d   1       2.099   1.263  10.731  0.00  0.00     0.023 C 
ATOM      5  C   UNL d   1      -2.199   0.958  11.307  0.00  0.00     0.126 C 
ATOM      6  C   UNL d   1      -0.184   2.481  10.728  0.00  0.00     0.013 C 
ATOM      7  C   UNL d   1      -0.973  -1.176  11.174  0.00  0.00     0.008 C 
ATOM      8  C   UNL d   1       1.263   2.458  10.199  0.00  0.00     0.010 C 
ATOM      9  C   UNL d   1      -2.371  -0.571  11.400  0.00  0.00     0.033 C 
ATOM     10  C   UNL d   1       2.172  -1.216  11.147  0.00  0.00     0.010 C 
ATOM     11  C   UNL d   1      -1.153   0.938   8.995  0.00  0.00     0.018 C 
ATOM     12  C   UNL d   1       3.525   1.179  10.190  0.00  0.00    -0.047 A 
ATOM     13  C   UNL d   1       3.480  -1.373  10.375  0.00  0.00     0.039 C 
ATOM     14  C   UNL d   1       4.173  -0.068  10.070  0.00  0.00    -0.049 A 
ATOM     15  C   UNL d   1       4.256   2.341   9.886  0.00  0.00     0.011 A 
ATOM     16  C   UNL d   1       5.500  -0.127   9.604  0.00  0.00     0.044 A 
ATOM     17  C   UNL d   1       5.574   2.270   9.432  0.00  0.00     0.037 A 
ATOM     18  C   UNL d   1       6.196   1.036   9.286  0.00  0.00     0.066 A 
ENDROOT
BRANCH   5  19
ATOM     19  O   UNL d   1      -3.312   1.575  10.692  0.00  0.00    -0.395 OA
ATOM     20  H   UNL d   1      -3.035   2.464  10.410  0.00  0.00     0.210 HD
ENDBRANCH   5  19
BRANCH  18  21
ATOM     21  O   UNL d   1       7.478   0.964   8.842  0.00  0.00    -0.361 OA
ATOM     22  H   UNL d   1       7.602   1.615   8.129  0.00  0.00     0.217 HD
ENDBRANCH  18  21
TORSDOF 2
ENDMDL
MODEL 2
REMARK VINA RESULT:      -6.5      1.108      6.668
REMARK  2 active torsions:
REMARK  status: ('A' for Active; 'I' for Inactive)
REMARK    1  A    between atoms: O_1  and  C_7 
REMARK    2  A    between atoms: O_2  and  C_20 
ROOT
ATOM      1  C   UNL d   1       4.884  -0.591   9.718  0.00  0.00    -0.014 C 
ATOM      2  C   UNL d   1       4.584   0.865  10.126  0.00  0.00     0.001 C 
ATOM      3  C   UNL d   1       3.107   1.219   9.955  0.00  0.00    -0.001 C 
ATOM      4  C   UNL d   1       2.262   0.293  10.882  0.00  0.00     0.023 C 
ATOM      5  C   UNL d   1       6.410  -0.600   9.937  0.00  0.00     0.126 C 
ATOM      6  C   UNL d   1       4.093  -1.520  10.647  0.00  0.00     0.013 C 
ATOM      7  C   UNL d   1       5.638   1.671   9.371  0.00  0.00     0.008 C 
ATOM      8  C   UNL d   1       2.586  -1.204  10.626  0.00  0.00     0.010 C 
ATOM      9  C   UNL d   1       6.877   0.755   9.370  0.00  0.00     0.033 C 
ATOM     10  C   UNL d   1       2.808   2.678  10.303  0.00  0.00     0.010 C 
ATOM     11  C   UNL d   1       4.549  -0.935   8.245  0.00  0.00     0.018 C 
ATOM     12  C   UNL d   1       0.779   0.654  10.820  0.00  0.00    -0.047 A 
ATOM     13  C   UNL d   1       1.353   3.001   9.975  0.00  0.00     0.039 C 
ATOM     14  C   UNL d   1       0.373   1.948  10.431  0.00  0.00    -0.049 A 
ATOM     15  C   UNL d   1      -0.208  -0.257  11.232  0.00  0.00     0.011 A 
ATOM     16  C   UNL d   1      -0.995   2.277  10.413  0.00  0.00     0.044 A 
ATOM     17  C   UNL d   1      -1.562   0.084  11.218  0.00  0.00     0.037 A 
ATOM     18  C   UNL d   1      -1.957   1.350  10.804  0.00  0.00     0.066 A 
ENDROOT
BRANCH   5  19
ATOM     19  O   UNL d   1       7.054  -1.685   9.298  0.00  0.00    -0.395 OA
ATOM     20  H   UNL d   1       6.368  -2.209   8.848  0.00  0.00     0.210 HD
ENDBRANCH   5  19
BRANCH  18  21
ATOM     21  O   UNL d   1      -3.274   1.684  10.786  0.00  0.00    -0.361 OA
ATOM     22  H   UNL d   1      -3.735   1.191  11.488  0.00  0.00     0.217 HD
ENDBRANCH  18  21
TORSDOF 2
ENDMDL
MODEL 3
REMARK VINA RESULT:      -6.1      2.448      4.252
REMARK  2 active torsions:
REMARK  status: ('A' for Active; 'I' for Inactive)
REMARK    1  A    between atoms: O_1  and  C_7 
REMARK    2  A    between atoms: O_2  and  C_20 
ROOT
ATOM      1  C   UNL d   1       1.423   0.735  10.273  0.00  0.00    -0.014 C 
ATOM      2  C   UNL d   1       2.697   0.766   9.406  0.00  0.00     0.001 C 
ATOM      3  C   UNL d   1       3.896   0.142  10.120  0.00  0.00    -0.001 C 
ATOM      4  C   UNL d   1       3.574  -1.354  10.421  0.00  0.00     0.023 C 
ATOM      5  C   UNL d   1       0.459   1.473   9.323  0.00  0.00     0.126 C 
ATOM      6  C   UNL d   1       1.065  -0.731  10.545  0.00  0.00     0.013 C 
ATOM      7  C   UNL d   1       2.776   2.217   8.941  0.00  0.00     0.008 C 
ATOM      8  C   UNL d   1       2.235  -1.495  11.194  0.00  0.00     0.010 C 
ATOM      9  C   UNL d   1       1.304   2.631   8.758  0.00  0.00     0.033 C 
ATOM     10  C   UNL d   1       5.179   0.218   9.291  0.00  0.00     0.010 C 
ATOM     11  C   UNL d   1       1.535   1.493  11.620  0.00  0.00     0.018 C 
ATOM     12  C   UNL d   1       4.768  -2.058  11.061  0.00  0.00    -0.047 A 
ATOM     13  C   UNL d   1       6.359  -0.290  10.116  0.00  0.00     0.039 C 
ATOM     14  C   UNL d   1       6.077  -1.566  10.871  0.00  0.00    -0.049 A 
ATOM     15  C   UNL d   1       4.606  -3.257  11.776  0.00  0.00     0.011 A 
ATOM     16  C   UNL d   1       7.170  -2.245  11.437  0.00  0.00     0.044 A 
ATOM     17  C   UNL d   1       5.701  -3.927  12.327  0.00  0.00     0.037 A 
ATOM     18  C   UNL d   1       6.983  -3.419  12.162  0.00  0.00     0.066 A 
ENDROOT
BRANCH   5  19
ATOM     19  O   UNL d   1      -0.707   1.942   9.972  0.00  0.00    -0.395 OA
ATOM     20  H   UNL d   1      -1.209   1.163  10.269  0.00  0.00     0.210 HD
ENDBRANCH   5  19
BRANCH  18  21
ATOM     21  O   UNL d   1       8.051  -4.068  12.698  0.00  0.00    -0.361 OA
ATOM     22  H   UNL d   1       7.895  -4.196  13.651  0.00  0.00     0.217 HD
ENDBRANCH  18  21
TORSDOF 2
ENDMDL
MODEL 4
REMARK VINA RESULT:      -5.5      6.774      7.731
REMARK  2 active torsions:
REMARK  status: ('A' for Active; 'I' for Inactive)
REMARK    1  A    between atoms: O_1  and  C_7 
REMARK    2  A    between atoms: O_2  and  C_20 
ROOT
ATOM      1  C   UNL d   1      -0.770   3.638   5.741  0.00  0.00    -0.014 C 
ATOM      2  C   UNL d   1       0.634   3.002   5.758  0.00  0.00     0.001 C 
ATOM      3  C   UNL d   1       0.897   2.149   4.516  0.00  0.00    -0.001 C 
ATOM      4  C   UNL d   1       0.816   3.064   3.257  0.00  0.00     0.023 C 
ATOM      5  C   UNL d   1      -0.738   4.346   7.109  0.00  0.00     0.126 C 
ATOM      6  C   UNL d   1      -0.855   4.575   4.530  0.00  0.00     0.013 C 
ATOM      7  C   UNL d   1       0.716   2.357   7.139  0.00  0.00     0.008 C 
ATOM      8  C   UNL d   1      -0.526   3.844   3.214  0.00  0.00     0.010 C 
ATOM      9  C   UNL d   1      -0.074   3.319   8.046  0.00  0.00     0.033 C 
ATOM     10  C   UNL d   1       2.266   1.468   4.550  0.00  0.00     0.010 C 
ATOM     11  C   UNL d   1      -1.942   2.624   5.686  0.00  0.00     0.018 C 
ATOM     12  C   UNL d   1       1.153   2.286   1.987  0.00  0.00    -0.047 A 
ATOM     13  C   UNL d   1       2.404   0.524   3.358  0.00  0.00     0.039 C 
ATOM     14  C   UNL d   1       1.938   1.115   2.050  0.00  0.00    -0.049 A 
ATOM     15  C   UNL d   1       0.769   2.762   0.721  0.00  0.00     0.011 A 
ATOM     16  C   UNL d   1       2.270   0.429   0.868  0.00  0.00     0.044 A 
ATOM     17  C   UNL d   1       1.112   2.076  -0.446  0.00  0.00     0.037 A 
ATOM     18  C   UNL d   1       1.858   0.907  -0.373  0.00  0.00     0.066 A 
ENDROOT
BRANCH   5  19
ATOM     19  O   UNL d   1      -2.022   4.721   7.568  0.00  0.00    -0.395 OA
ATOM     20  H   UNL d   1      -2.062   4.522   8.519  0.00  0.00     0.210 HD
ENDBRANCH   5  19
BRANCH  18  21
ATOM     21  O   UNL d   1       2.191   0.235  -1.507  0.00  0.00    -0.361 OA
ATOM     22  H   UNL d   1       1.504  -0.428  -1.695  0.00  0.00     0.217 HD
ENDBRANCH  18  21
TORSDOF 2
ENDMDL
MODEL 5
REMARK VINA RESULT:      -5.5      7.378      9.481
REMARK  2 active torsions:
REMARK  status: ('A' for Active; 'I' for Inactive)
REMARK    1  A    between atoms: O_1  and  C_7 
REMARK    2  A    between atoms: O_2  and  C_20 
ROOT
ATOM      1  C   UNL d   1       2.642  -0.585   2.466  0.00  0.00    -0.014 C 
ATOM      2  C   UNL d   1       2.339   0.540   1.457  0.00  0.00     0.001 C 
ATOM      3  C   UNL d   1       1.307   1.532   1.991  0.00  0.00    -0.001 C 
ATOM      4  C   UNL d   1       1.879   2.203   3.276  0.00  0.00     0.023 C 
ATOM      5  C   UNL d   1       3.628  -1.417   1.623  0.00  0.00     0.126 C 
ATOM      6  C   UNL d   1       3.246   0.052   3.724  0.00  0.00     0.013 C 
ATOM      7  C   UNL d   1       2.051  -0.214   0.160  0.00  0.00     0.008 C 
ATOM      8  C   UNL d   1       2.327   1.138   4.314  0.00  0.00     0.010 C 
ATOM      9  C   UNL d   1       3.001  -1.425   0.215  0.00  0.00     0.033 C 
ATOM     10  C   UNL d   1       0.957   2.620   0.975  0.00  0.00     0.010 C 
ATOM     11  C   UNL d   1       1.417  -1.446   2.867  0.00  0.00     0.018 C 
ATOM     12  C   UNL d   1       0.927   3.269   3.814  0.00  0.00    -0.047 A 
ATOM     13  C   UNL d   1      -0.178   3.488   1.515  0.00  0.00     0.039 C 
ATOM     14  C   UNL d   1      -0.006   3.893   2.958  0.00  0.00    -0.049 A 
ATOM     15  C   UNL d   1       1.015   3.719   5.142  0.00  0.00     0.011 A 
ATOM     16  C   UNL d   1      -0.853   4.899   3.459  0.00  0.00     0.044 A 
ATOM     17  C   UNL d   1       0.175   4.725   5.625  0.00  0.00     0.037 A 
ATOM     18  C   UNL d   1      -0.763   5.312   4.786  0.00  0.00     0.066 A 
ENDROOT
BRANCH   5  19
ATOM     19  O   UNL d   1       3.815  -2.727   2.122  0.00  0.00    -0.395 OA
ATOM     20  H   UNL d   1       4.203  -3.260   1.406  0.00  0.00     0.210 HD
ENDBRANCH   5  19
BRANCH  18  21
ATOM     21  O   UNL d   1      -1.584   6.289   5.253  0.00  0.00    -0.361 OA
ATOM     22  H   UNL d   1      -1.107   6.807   5.926  0.00  0.00     0.217 HD
ENDBRANCH  18  21
TORSDOF 2
ENDMDL
MODEL 6
REMARK VINA RESULT:      -5.5      1.525      3.062
REMARK  2 active torsions:
REMARK  status: ('A' for Active; 'I' for Inactive)
REMARK    1  A    between atoms: O_1  and  C_7 
REMARK    2  A    between atoms: O_2  and  C_20 
ROOT
ATOM      1  C   UNL d   1      -0.661   1.317   9.912  0.00  0.00    -0.014 C 
ATOM      2  C   UNL d   1       0.425   1.680   8.880  0.00  0.00     0.001 C 
ATOM      3  C   UNL d   1       1.833   1.388   9.397  0.00  0.00    -0.001 C 
ATOM      4  C   UNL d   1       1.954  -0.140   9.679  0.00  0.00     0.023 C 
ATOM      5  C   UNL d   1      -1.908   1.780   9.135  0.00  0.00     0.126 C 
ATOM      6  C   UNL d   1      -0.586  -0.193  10.173  0.00  0.00     0.013 C 
ATOM      7  C   UNL d   1       0.060   3.104   8.466  0.00  0.00     0.008 C 
ATOM      8  C   UNL d   1       0.822  -0.627  10.624  0.00  0.00     0.010 C 
ATOM      9  C   UNL d   1      -1.480   3.120   8.505  0.00  0.00     0.033 C 
ATOM     10  C   UNL d   1       2.921   1.798   8.402  0.00  0.00     0.010 C 
ATOM     11  C   UNL d   1      -0.555   2.074  11.261  0.00  0.00     0.018 C 
ATOM     12  C   UNL d   1       3.368  -0.511  10.120  0.00  0.00    -0.047 A 
ATOM     13  C   UNL d   1       4.298   1.613   9.034  0.00  0.00     0.039 C 
ATOM     14  C   UNL d   1       4.465   0.306   9.770  0.00  0.00    -0.049 A 
ATOM     15  C   UNL d   1       3.625  -1.712  10.802  0.00  0.00     0.011 A 
ATOM     16  C   UNL d   1       5.766  -0.067  10.153  0.00  0.00     0.044 A 
ATOM     17  C   UNL d   1       4.923  -2.075  11.169  0.00  0.00     0.037 A 
ATOM     18  C   UNL d   1       5.993  -1.250  10.849  0.00  0.00     0.066 A 
ENDROOT
BRANCH   5  19
ATOM     19  O   UNL d   1      -3.049   1.928   9.957  0.00  0.00    -0.395 OA
ATOM     20  H   UNL d   1      -3.810   1.568   9.468  0.00  0.00     0.210 HD
ENDBRANCH   5  19
BRANCH  18  21
ATOM     21  O   UNL d   1       7.258  -1.600  11.207  0.00  0.00    -0.361 OA
ATOM     22  H   UNL d   1       7.786  -1.742  10.402  0.00  0.00     0.217 HD
ENDBRANCH  18  21
TORSDOF 2
ENDMDL
MODEL 7
REMARK VINA RESULT:      -5.4      7.532      8.410
REMARK  2 active torsions:
REMARK  status: ('A' for Active; 'I' for Inactive)
REMARK    1  A    between atoms: O_1  and  C_7 
REMARK    2  A    between atoms: O_2  and  C_20 
ROOT
ATOM      1  C   UNL d   1      -0.480   3.926   3.644  0.00  0.00    -0.014 C 
ATOM      2  C   UNL d   1       0.830   3.391   4.255  0.00  0.00     0.001 C 
ATOM      3  C   UNL d   1       1.251   2.056   3.641  0.00  0.00    -0.001 C 
ATOM      4  C   UNL d   1       1.501   2.266   2.117  0.00  0.00     0.023 C 
ATOM      5  C   UNL d   1      -0.651   5.198   4.497  0.00  0.00     0.126 C 
ATOM      6  C   UNL d   1      -0.241   4.179   2.150  0.00  0.00     0.013 C 
ATOM      7  C   UNL d   1       0.582   3.477   5.759  0.00  0.00     0.008 C 
ATOM      8  C   UNL d   1       0.271   2.917   1.430  0.00  0.00     0.010 C 
ATOM      9  C   UNL d   1      -0.279   4.744   5.922  0.00  0.00     0.033 C 
ATOM     10  C   UNL d   1       2.519   1.489   4.281  0.00  0.00     0.010 C 
ATOM     11  C   UNL d   1      -1.706   2.993   3.815  0.00  0.00     0.018 C 
ATOM     12  C   UNL d   1       2.007   0.984   1.459  0.00  0.00    -0.047 A 
ATOM     13  C   UNL d   1       2.801   0.096   3.724  0.00  0.00     0.039 C 
ATOM     14  C   UNL d   1       2.655  -0.008   2.226  0.00  0.00    -0.049 A 
ATOM     15  C   UNL d   1       1.923   0.800   0.068  0.00  0.00     0.011 A 
ATOM     16  C   UNL d   1       3.147  -1.168   1.600  0.00  0.00     0.044 A 
ATOM     17  C   UNL d   1       2.424  -0.352  -0.543  0.00  0.00     0.037 A 
ATOM     18  C   UNL d   1       3.031  -1.339   0.223  0.00  0.00     0.066 A 
ENDROOT
BRANCH   5  19
ATOM     19  O   UNL d   1      -1.960   5.730   4.441  0.00  0.00    -0.395 OA
ATOM     20  H   UNL d   1      -2.439   5.413   5.227  0.00  0.00     0.210 HD
ENDBRANCH   5  19
BRANCH  18  21
ATOM     21  O   UNL d   1       3.517  -2.463  -0.368  0.00  0.00    -0.361 OA
ATOM     22  H   UNL d   1       4.459  -2.329  -0.573  0.00  0.00     0.217 HD
ENDBRANCH  18  21
TORSDOF 2
ENDMDL
MODEL 8
REMARK VINA RESULT:      -5.4      5.786      7.587
REMARK  2 active torsions:
REMARK  status: ('A' for Active; 'I' for Inactive)
REMARK    1  A    between atoms: O_1  and  C_7 
REMARK    2  A    between atoms: O_2  and  C_20 
ROOT
ATOM      1  C   UNL d   1       1.907   0.529   2.591  0.00  0.00    -0.014 C 
ATOM      2  C   UNL d   1       1.635   1.989   3.004  0.00  0.00     0.001 C 
ATOM      3  C   UNL d   1       1.162   2.101   4.453  0.00  0.00    -0.001 C 
ATOM      4  C   UNL d   1       2.285   1.556   5.387  0.00  0.00     0.023 C 
ATOM      5  C   UNL d   1       2.285   0.755   1.114  0.00  0.00     0.126 C 
ATOM      6  C   UNL d   1       3.040  -0.012   3.472  0.00  0.00     0.013 C 
ATOM      7  C   UNL d   1       0.742   2.515   1.883  0.00  0.00     0.008 C 
ATOM      8  C   UNL d   1       2.714   0.123   4.972  0.00  0.00     0.010 C 
ATOM      9  C   UNL d   1       1.265   1.800   0.623  0.00  0.00     0.033 C 
ATOM     10  C   UNL d   1       0.835   3.541   4.855  0.00  0.00     0.010 C 
ATOM     11  C   UNL d   1       0.682  -0.414   2.696  0.00  0.00     0.018 C 
ATOM     12  C   UNL d   1       1.907   1.718   6.858  0.00  0.00    -0.047 A 
ATOM     13  C   UNL d   1       0.237   3.563   6.259  0.00  0.00     0.039 C 
ATOM     14  C   UNL d   1       0.972   2.697   7.254  0.00  0.00    -0.049 A 
ATOM     15  C   UNL d   1       2.544   0.963   7.859  0.00  0.00     0.011 A 
ATOM     16  C   UNL d   1       0.660   2.859   8.616  0.00  0.00     0.044 A 
ATOM     17  C   UNL d   1       2.232   1.139   9.208  0.00  0.00     0.037 A 
ATOM     18  C   UNL d   1       1.286   2.083   9.588  0.00  0.00     0.066 A 
ENDROOT
BRANCH   5  19
ATOM     19  O   UNL d   1       2.235  -0.430   0.343  0.00  0.00    -0.395 OA
ATOM     20  H   UNL d   1       3.150  -0.728   0.206  0.00  0.00     0.210 HD
ENDBRANCH   5  19
BRANCH  18  21
ATOM     21  O   UNL d   1       0.978   2.255  10.901  0.00  0.00    -0.361 OA
ATOM     22  H   UNL d   1       0.100   2.669  10.967  0.00  0.00     0.217 HD
ENDBRANCH  18  21
TORSDOF 2
ENDMDL
MODEL 9
REMARK VINA RESULT:      -5.2     14.550     17.889
REMARK  2 active torsions:
REMARK  status: ('A' for Active; 'I' for Inactive)
REMARK    1  A    between atoms: O_1  and  C_7 
REMARK    2  A    between atoms: O_2  and  C_20 
ROOT
ATOM      1  C   UNL d   1      15.647  -9.301  18.183  0.00  0.00    -0.014 C 
ATOM      2  C   UNL d   1      16.243  -8.459  17.038  0.00  0.00     0.001 C 
ATOM      3  C   UNL d   1      15.649  -8.830  15.680  0.00  0.00    -0.001 C 
ATOM      4  C   UNL d   1      14.116  -8.551  15.712  0.00  0.00     0.023 C 
ATOM      5  C   UNL d   1      16.476  -8.745  19.358  0.00  0.00     0.126 C 
ATOM      6  C   UNL d   1      14.143  -9.008  18.259  0.00  0.00     0.013 C 
ATOM      7  C   UNL d   1      17.749  -8.579  17.255  0.00  0.00     0.008 C 
ATOM      8  C   UNL d   1      13.440  -9.267  16.913  0.00  0.00     0.010 C 
ATOM      9  C   UNL d   1      17.902  -8.630  18.786  0.00  0.00     0.033 C 
ATOM     10  C   UNL d   1      16.275  -8.039  14.529  0.00  0.00     0.010 C 
ATOM     11  C   UNL d   1      15.864 -10.829  18.047  0.00  0.00     0.018 C 
ATOM     12  C   UNL d   1      13.476  -8.823  14.353  0.00  0.00    -0.047 A 
ATOM     13  C   UNL d   1      15.743  -8.557  13.195  0.00  0.00     0.039 C 
ATOM     14  C   UNL d   1      14.251  -8.780  13.174  0.00  0.00    -0.049 A 
ATOM     15  C   UNL d   1      12.091  -9.033  14.231  0.00  0.00     0.011 A 
ATOM     16  C   UNL d   1      13.640  -8.998  11.926  0.00  0.00     0.044 A 
ATOM     17  C   UNL d   1      11.496  -9.239  12.985  0.00  0.00     0.037 A 
ATOM     18  C   UNL d   1      12.271  -9.227  11.832  0.00  0.00     0.066 A 
ENDROOT
BRANCH   5  19
ATOM     19  O   UNL d   1      16.435  -9.573  20.504  0.00  0.00    -0.395 OA
ATOM     20  H   UNL d   1      15.507  -9.828  20.647  0.00  0.00     0.210 HD
ENDBRANCH   5  19
BRANCH  18  21
ATOM     21  O   UNL d   1      11.694  -9.431  10.618  0.00  0.00    -0.361 OA
ATOM     22  H   UNL d   1      11.402 -10.357  10.558  0.00  0.00     0.217 HD
ENDBRANCH  18  21
TORSDOF 2
ENDMDL
