MODEL 1
REMARK VINA RESULT:      -1.4      0.000      0.000
REMARK  8 active torsions:
REMARK  status: ('A' for Active; 'I' for Inactive)
REMARK    1  A    between atoms: O_4  and  C_14 
REMARK    2  A    between atoms: O_4  and  C_18 
REMARK    3  A    between atoms: O_5  and  C_17 
REMARK    4  A    between atoms: O_7  and  C_23 
REMARK    5  A    between atoms: N_8  and  CA_10 
REMARK    6  A    between atoms: C_9  and  CA_10 
REMARK    7  A    between atoms: C_9  and  C_11 
REMARK    8  A    between atoms: CA_10  and  C_17 
ROOT
ATOM      1  I   UNL d   1      18.215  -4.006   9.834  0.00  0.00    -0.042 I 
ATOM      2  I   UNL d   1      20.087  -0.227  14.246  0.00  0.00    -0.042 I 
ATOM      3  C   UNL d   1      18.177  -4.104  14.156  0.00  0.00    -0.053 A 
ATOM      4  C   UNL d   1      18.763  -2.916  14.561  0.00  0.00     0.028 A 
ATOM      5  C   UNL d   1      18.022  -4.412  12.814  0.00  0.00     0.028 A 
ATOM      6  C   UNL d   1      19.057  -2.306  12.241  0.00  0.00     0.109 A 
ATOM      7  C   UNL d   1      18.465  -3.506  11.850  0.00  0.00     0.042 A 
ATOM      8  C   UNL d   1      19.206  -2.010  13.596  0.00  0.00     0.042 A 
ENDROOT
BRANCH   6   9
ATOM      9  O   UNL d   1      19.492  -1.419  11.297  0.00  0.00    -0.308 OA
BRANCH   9  10
ATOM     10  C   UNL d   1      18.675  -0.341  11.009  0.00  0.00     0.077 A 
ATOM     11  C   UNL d   1      17.323  -0.423  11.291  0.00  0.00     0.058 A 
ATOM     12  C   UNL d   1      16.500   0.664  11.000  0.00  0.00     0.042 A 
ATOM     13  I   UNL d   1      14.461   0.517  11.435  0.00  0.00    -0.042 I 
ATOM     14  C   UNL d   1      17.042   1.817  10.430  0.00  0.00     0.082 A 
ATOM     15  C   UNL d   1      18.407   1.882  10.153  0.00  0.00     0.040 A 
ATOM     16  C   UNL d   1      19.230   0.794  10.444  0.00  0.00     0.040 A 
BRANCH  14  17
ATOM     17  O   UNL d   1      16.271   2.901  10.130  0.00  0.00    -0.359 OA
ATOM     18  H   UNL d   1      16.814   3.563   9.669  0.00  0.00     0.217 HD
ENDBRANCH  14  17
ENDBRANCH   9  10
ENDBRANCH   6   9
BRANCH   3  19
ATOM     19  C   UNL d   1      17.697  -5.085  15.200  0.00  0.00     0.085 C 
BRANCH  19  20
ATOM     20  CA  UNL d   1      18.406  -6.445  15.113  0.00  0.00     0.318 C 
BRANCH  20  21
ATOM     21  N   UNL d   1      17.417  -7.512  14.981  0.00  0.00     0.093 N 
ATOM     22  H1  UNL d   1      17.876  -8.417  15.063  0.00  0.00     0.314 HD
ATOM     23  H2  UNL d   1      17.009  -7.491  14.046  0.00  0.00     0.314 HD
ENDBRANCH  20  21
BRANCH  20  24
ATOM     24  C   UNL d   1      19.211  -6.750  16.364  0.00  0.00     0.174 C 
ATOM     25  OXT UNL d   1      19.120  -7.779  17.021  0.00  0.00    -0.648 OA
BRANCH  24  26
ATOM     26  O   UNL d   1      20.090  -5.759  16.668  0.00  0.00    -0.775 OA
ATOM     27  H   UNL d   1      20.985  -5.944  16.312  0.00  0.00     0.167 HD
ENDBRANCH  24  26
ENDBRANCH  20  24
ENDBRANCH  19  20
ENDBRANCH   3  19
TORSDOF 8
ENDMDL
MODEL 2
REMARK VINA RESULT:      -1.4      5.164      8.251
REMARK  8 active torsions:
REMARK  status: ('A' for Active; 'I' for Inactive)
REMARK    1  A    between atoms: O_4  and  C_14 
REMARK    2  A    between atoms: O_4  and  C_18 
REMARK    3  A    between atoms: O_5  and  C_17 
REMARK    4  A    between atoms: O_7  and  C_23 
REMARK    5  A    between atoms: N_8  and  CA_10 
REMARK    6  A    between atoms: C_9  and  CA_10 
REMARK    7  A    between atoms: C_9  and  C_11 
REMARK    8  A    between atoms: CA_10  and  C_17 
ROOT
ATOM      1  I   UNL d   1      13.022  -2.673  15.873  0.00  0.00    -0.042 I 
ATOM      2  I   UNL d   1      18.024  -5.949  14.649  0.00  0.00    -0.042 I 
ATOM      3  C   UNL d   1      17.261  -1.840  15.754  0.00  0.00    -0.053 A 
ATOM      4  C   UNL d   1      17.867  -3.035  15.402  0.00  0.00     0.028 A 
ATOM      5  C   UNL d   1      15.886  -1.739  15.887  0.00  0.00     0.028 A 
ATOM      6  C   UNL d   1      15.688  -4.075  15.307  0.00  0.00     0.109 A 
ATOM      7  C   UNL d   1      15.094  -2.864  15.662  0.00  0.00     0.042 A 
ATOM      8  C   UNL d   1      17.074  -4.161  15.177  0.00  0.00     0.042 A 
ENDROOT
BRANCH   6   9
ATOM      9  O   UNL d   1      14.912  -5.178  15.087  0.00  0.00    -0.308 OA
BRANCH   9  10
ATOM     10  C   UNL d   1      14.763  -6.073  16.131  0.00  0.00     0.077 A 
ATOM     11  C   UNL d   1      14.319  -7.356  15.864  0.00  0.00     0.058 A 
ATOM     12  C   UNL d   1      14.169  -8.258  16.917  0.00  0.00     0.042 A 
ATOM     13  I   UNL d   1      13.495 -10.189  16.490  0.00  0.00    -0.042 I 
ATOM     14  C   UNL d   1      14.467  -7.862  18.222  0.00  0.00     0.082 A 
ATOM     15  C   UNL d   1      14.915  -6.565  18.473  0.00  0.00     0.040 A 
ATOM     16  C   UNL d   1      15.064  -5.664  17.418  0.00  0.00     0.040 A 
BRANCH  14  17
ATOM     17  O   UNL d   1      14.334  -8.713  19.279  0.00  0.00    -0.359 OA
ATOM     18  H   UNL d   1      14.632  -8.266  20.090  0.00  0.00     0.217 HD
ENDBRANCH  14  17
ENDBRANCH   9  10
ENDBRANCH   6   9
BRANCH   3  19
ATOM     19  C   UNL d   1      18.120  -0.621  15.998  0.00  0.00     0.085 C 
BRANCH  19  20
ATOM     20  CA  UNL d   1      18.021  -0.099  17.440  0.00  0.00     0.318 C 
BRANCH  20  21
ATOM     21  N   UNL d   1      18.425   1.304  17.487  0.00  0.00     0.093 N 
ATOM     22  H1  UNL d   1      19.409   1.386  17.237  0.00  0.00     0.314 HD
ATOM     23  H2  UNL d   1      18.352   1.653  18.443  0.00  0.00     0.314 HD
ENDBRANCH  20  21
BRANCH  20  24
ATOM     24  C   UNL d   1      18.944  -0.850  18.384  0.00  0.00     0.174 C 
ATOM     25  OXT UNL d   1      18.756  -0.985  19.586  0.00  0.00    -0.648 OA
BRANCH  24  26
ATOM     26  O   UNL d   1      20.006  -1.400  17.739  0.00  0.00    -0.775 OA
ATOM     27  H   UNL d   1      19.767  -2.242  17.297  0.00  0.00     0.167 HD
ENDBRANCH  24  26
ENDBRANCH  20  24
ENDBRANCH  19  20
ENDBRANCH   3  19
TORSDOF 8
ENDMDL
MODEL 3
REMARK VINA RESULT:      -1.4      2.970      3.740
REMARK  8 active torsions:
REMARK  status: ('A' for Active; 'I' for Inactive)
REMARK    1  A    between atoms: O_4  and  C_14 
REMARK    2  A    between atoms: O_4  and  C_18 
REMARK    3  A    between atoms: O_5  and  C_17 
REMARK    4  A    between atoms: O_7  and  C_23 
REMARK    5  A    between atoms: N_8  and  CA_10 
REMARK    6  A    between atoms: C_9  and  CA_10 
REMARK    7  A    between atoms: C_9  and  C_11 
REMARK    8  A    between atoms: CA_10  and  C_17 
ROOT
ATOM      1  I   UNL d   1      14.717  -5.261  11.283  0.00  0.00    -0.042 I 
ATOM      2  I   UNL d   1      19.803  -2.377  13.035  0.00  0.00    -0.042 I 
ATOM      3  C   UNL d   1      17.954  -6.163  14.001  0.00  0.00    -0.053 A 
ATOM      4  C   UNL d   1      18.807  -5.073  13.941  0.00  0.00     0.028 A 
ATOM      5  C   UNL d   1      16.794  -6.215  13.247  0.00  0.00     0.028 A 
ATOM      6  C   UNL d   1      17.325  -4.042  12.335  0.00  0.00     0.109 A 
ATOM      7  C   UNL d   1      16.477  -5.146  12.408  0.00  0.00     0.042 A 
ATOM      8  C   UNL d   1      18.490  -4.005  13.101  0.00  0.00     0.042 A 
ENDROOT
BRANCH   6   9
ATOM      9  O   UNL d   1      17.016  -2.996  11.513  0.00  0.00    -0.308 OA
BRANCH   9  10
ATOM     10  C   UNL d   1      17.617  -2.962  10.268  0.00  0.00     0.077 A 
ATOM     11  C   UNL d   1      17.745  -1.750   9.612  0.00  0.00     0.058 A 
ATOM     12  C   UNL d   1      18.353  -1.716   8.357  0.00  0.00     0.042 A 
ATOM     13  I   UNL d   1      18.533   0.125   7.384  0.00  0.00    -0.042 I 
ATOM     14  C   UNL d   1      18.823  -2.896   7.778  0.00  0.00     0.082 A 
ATOM     15  C   UNL d   1      18.686  -4.108   8.454  0.00  0.00     0.040 A 
ATOM     16  C   UNL d   1      18.078  -4.140   9.709  0.00  0.00     0.040 A 
BRANCH  14  17
ATOM     17  O   UNL d   1      19.422  -2.906   6.553  0.00  0.00    -0.359 OA
ATOM     18  H   UNL d   1      18.925  -3.492   5.957  0.00  0.00     0.217 HD
ENDBRANCH  14  17
ENDBRANCH   9  10
ENDBRANCH   6   9
BRANCH   3  19
ATOM     19  C   UNL d   1      18.298  -7.321  14.910  0.00  0.00     0.085 C 
BRANCH  19  20
ATOM     20  CA  UNL d   1      18.365  -6.918  16.391  0.00  0.00     0.318 C 
BRANCH  20  21
ATOM     21  N   UNL d   1      19.679  -7.255  16.936  0.00  0.00     0.093 N 
ATOM     22  H1  UNL d   1      19.764  -6.881  17.880  0.00  0.00     0.314 HD
ATOM     23  H2  UNL d   1      20.408  -6.797  16.389  0.00  0.00     0.314 HD
ENDBRANCH  20  21
BRANCH  20  24
ATOM     24  C   UNL d   1      17.342  -7.660  17.232  0.00  0.00     0.174 C 
ATOM     25  OXT UNL d   1      16.311  -8.160  16.800  0.00  0.00    -0.648 OA
BRANCH  24  26
ATOM     26  O   UNL d   1      17.710  -7.745  18.538  0.00  0.00    -0.775 OA
ATOM     27  H   UNL d   1      18.284  -6.996  18.804  0.00  0.00     0.167 HD
ENDBRANCH  24  26
ENDBRANCH  20  24
ENDBRANCH  19  20
ENDBRANCH   3  19
TORSDOF 8
ENDMDL
MODEL 4
REMARK VINA RESULT:      -1.3      5.569      9.448
REMARK  8 active torsions:
REMARK  status: ('A' for Active; 'I' for Inactive)
REMARK    1  A    between atoms: O_4  and  C_14 
REMARK    2  A    between atoms: O_4  and  C_18 
REMARK    3  A    between atoms: O_5  and  C_17 
REMARK    4  A    between atoms: O_7  and  C_23 
REMARK    5  A    between atoms: N_8  and  CA_10 
REMARK    6  A    between atoms: C_9  and  CA_10 
REMARK    7  A    between atoms: C_9  and  C_11 
REMARK    8  A    between atoms: CA_10  and  C_17 
ROOT
ATOM      1  I   UNL d   1      13.526  -6.135  16.732  0.00  0.00    -0.042 I 
ATOM      2  I   UNL d   1      19.529  -7.202  16.455  0.00  0.00    -0.042 I 
ATOM      3  C   UNL d   1      16.492  -6.086  13.588  0.00  0.00    -0.053 A 
ATOM      4  C   UNL d   1      17.689  -6.427  14.199  0.00  0.00     0.028 A 
ATOM      5  C   UNL d   1      15.312  -6.004  14.308  0.00  0.00     0.028 A 
ATOM      6  C   UNL d   1      16.524  -6.614  16.307  0.00  0.00     0.109 A 
ATOM      7  C   UNL d   1      15.328  -6.270  15.677  0.00  0.00     0.042 A 
ATOM      8  C   UNL d   1      17.704  -6.693  15.568  0.00  0.00     0.042 A 
ENDROOT
BRANCH   6   9
ATOM      9  O   UNL d   1      16.540  -6.874  17.648  0.00  0.00    -0.308 OA
BRANCH   9  10
ATOM     10  C   UNL d   1      16.562  -8.200  18.042  0.00  0.00     0.077 A 
ATOM     11  C   UNL d   1      16.083  -9.170  17.179  0.00  0.00     0.058 A 
ATOM     12  C   UNL d   1      16.106 -10.506  17.577  0.00  0.00     0.042 A 
ATOM     13  I   UNL d   1      15.376 -11.953  16.257  0.00  0.00    -0.042 I 
ATOM     14  C   UNL d   1      16.609 -10.852  18.832  0.00  0.00     0.082 A 
ATOM     15  C   UNL d   1      17.089  -9.861  19.688  0.00  0.00     0.040 A 
ATOM     16  C   UNL d   1      17.065  -8.524  19.289  0.00  0.00     0.040 A 
BRANCH  14  17
ATOM     17  O   UNL d   1      16.649 -12.146  19.258  0.00  0.00    -0.359 OA
ATOM     18  H   UNL d   1      15.742 -12.482  19.351  0.00  0.00     0.217 HD
ENDBRANCH  14  17
ENDBRANCH   9  10
ENDBRANCH   6   9
BRANCH   3  19
ATOM     19  C   UNL d   1      16.475  -5.798  12.105  0.00  0.00     0.085 C 
BRANCH  19  20
ATOM     20  CA  UNL d   1      17.870  -5.876  11.465  0.00  0.00     0.318 C 
BRANCH  20  21
ATOM     21  N   UNL d   1      18.160  -4.631  10.757  0.00  0.00     0.093 N 
ATOM     22  H1  UNL d   1      18.857  -4.803  10.035  0.00  0.00     0.314 HD
ATOM     23  H2  UNL d   1      18.584  -3.960  11.398  0.00  0.00     0.314 HD
ENDBRANCH  20  21
BRANCH  20  24
ATOM     24  C   UNL d   1      17.967  -6.992  10.440  0.00  0.00     0.174 C 
ATOM     25  OXT UNL d   1      18.160  -6.827   9.242  0.00  0.00    -0.648 OA
BRANCH  24  26
ATOM     26  O   UNL d   1      17.850  -8.223  11.003  0.00  0.00    -0.775 OA
ATOM     27  H   UNL d   1      16.978  -8.345  11.436  0.00  0.00     0.167 HD
ENDBRANCH  24  26
ENDBRANCH  20  24
ENDBRANCH  19  20
ENDBRANCH   3  19
TORSDOF 8
ENDMDL
MODEL 5
REMARK VINA RESULT:      -1.3      3.632      7.994
REMARK  8 active torsions:
REMARK  status: ('A' for Active; 'I' for Inactive)
REMARK    1  A    between atoms: O_4  and  C_14 
REMARK    2  A    between atoms: O_4  and  C_18 
REMARK    3  A    between atoms: O_5  and  C_17 
REMARK    4  A    between atoms: O_7  and  C_23 
REMARK    5  A    between atoms: N_8  and  CA_10 
REMARK    6  A    between atoms: C_9  and  CA_10 
REMARK    7  A    between atoms: C_9  and  C_11 
REMARK    8  A    between atoms: CA_10  and  C_17 
ROOT
ATOM      1  I   UNL d   1      14.126  -5.281  14.482  0.00  0.00    -0.042 I 
ATOM      2  I   UNL d   1      20.090  -4.185  15.173  0.00  0.00    -0.042 I 
ATOM      3  C   UNL d   1      17.077  -2.984  12.314  0.00  0.00    -0.053 A 
ATOM      4  C   UNL d   1      18.265  -3.155  13.008  0.00  0.00     0.028 A 
ATOM      5  C   UNL d   1      15.903  -3.588  12.734  0.00  0.00     0.028 A 
ATOM      6  C   UNL d   1      17.104  -4.567  14.588  0.00  0.00     0.109 A 
ATOM      7  C   UNL d   1      15.917  -4.386  13.879  0.00  0.00     0.042 A 
ATOM      8  C   UNL d   1      18.278  -3.952  14.152  0.00  0.00     0.042 A 
ENDROOT
BRANCH   6   9
ATOM      9  O   UNL d   1      17.118  -5.347  15.709  0.00  0.00    -0.308 OA
BRANCH   9  10
ATOM     10  C   UNL d   1      17.585  -6.642  15.581  0.00  0.00     0.077 A 
ATOM     11  C   UNL d   1      17.546  -7.256  14.340  0.00  0.00     0.058 A 
ATOM     12  C   UNL d   1      18.018  -8.562  14.212  0.00  0.00     0.042 A 
ATOM     13  I   UNL d   1      17.948  -9.467  12.329  0.00  0.00    -0.042 I 
ATOM     14  C   UNL d   1      18.521  -9.235  15.326  0.00  0.00     0.082 A 
ATOM     15  C   UNL d   1      18.553  -8.601  16.568  0.00  0.00     0.040 A 
ATOM     16  C   UNL d   1      18.081  -7.295  16.696  0.00  0.00     0.040 A 
BRANCH  14  17
ATOM     17  O   UNL d   1      18.991 -10.512  15.242  0.00  0.00    -0.359 OA
ATOM     18  H   UNL d   1      19.941 -10.491  15.038  0.00  0.00     0.217 HD
ENDBRANCH  14  17
ENDBRANCH   9  10
ENDBRANCH   6   9
BRANCH   3  19
ATOM     19  C   UNL d   1      17.062  -2.121  11.075  0.00  0.00     0.085 C 
BRANCH  19  20
ATOM     20  CA  UNL d   1      18.427  -2.060  10.372  0.00  0.00     0.318 C 
BRANCH  20  21
ATOM     21  N   UNL d   1      18.765  -0.672  10.066  0.00  0.00     0.093 N 
ATOM     22  H1  UNL d   1      18.659  -0.507   9.066  0.00  0.00     0.314 HD
ATOM     23  H2  UNL d   1      19.749  -0.503  10.273  0.00  0.00     0.314 HD
ENDBRANCH  20  21
BRANCH  20  24
ATOM     24  C   UNL d   1      18.423  -2.809   9.051  0.00  0.00     0.174 C 
ATOM     25  OXT UNL d   1      17.679  -3.742   8.777  0.00  0.00    -0.648 OA
BRANCH  24  26
ATOM     26  O   UNL d   1      19.324  -2.304   8.168  0.00  0.00    -0.775 OA
ATOM     27  H   UNL d   1      19.739  -3.009   7.627  0.00  0.00     0.167 HD
ENDBRANCH  24  26
ENDBRANCH  20  24
ENDBRANCH  19  20
ENDBRANCH   3  19
TORSDOF 8
ENDMDL
MODEL 6
REMARK VINA RESULT:      -1.1      3.508      4.820
REMARK  8 active torsions:
REMARK  status: ('A' for Active; 'I' for Inactive)
REMARK    1  A    between atoms: O_4  and  C_14 
REMARK    2  A    between atoms: O_4  and  C_18 
REMARK    3  A    between atoms: O_5  and  C_17 
REMARK    4  A    between atoms: O_7  and  C_23 
REMARK    5  A    between atoms: N_8  and  CA_10 
REMARK    6  A    between atoms: C_9  and  CA_10 
REMARK    7  A    between atoms: C_9  and  C_11 
REMARK    8  A    between atoms: CA_10  and  C_17 
ROOT
ATOM      1  I   UNL d   1      14.214  -0.492  10.590  0.00  0.00    -0.042 I 
ATOM      2  I   UNL d   1      20.090   1.086  11.066  0.00  0.00    -0.042 I 
ATOM      3  C   UNL d   1      17.197  -0.741  13.708  0.00  0.00    -0.053 A 
ATOM      4  C   UNL d   1      18.351  -0.198  13.165  0.00  0.00     0.028 A 
ATOM      5  C   UNL d   1      16.024  -0.824  12.976  0.00  0.00     0.028 A 
ATOM      6  C   UNL d   1      17.155   0.199  11.103  0.00  0.00     0.109 A 
ATOM      7  C   UNL d   1      16.003  -0.350  11.665  0.00  0.00     0.042 A 
ATOM      8  C   UNL d   1      18.329   0.275  11.853  0.00  0.00     0.042 A 
ENDROOT
BRANCH   6   9
ATOM      9  O   UNL d   1      17.135   0.662   9.818  0.00  0.00    -0.308 OA
BRANCH   9  10
ATOM     10  C   UNL d   1      17.668  -0.154   8.836  0.00  0.00     0.077 A 
ATOM     11  C   UNL d   1      18.134   0.415   7.663  0.00  0.00     0.058 A 
ATOM     12  C   UNL d   1      18.671  -0.408   6.674  0.00  0.00     0.042 A 
ATOM     13  I   UNL d   1      19.367   0.473   4.911  0.00  0.00    -0.042 I 
ATOM     14  C   UNL d   1      18.735  -1.788   6.874  0.00  0.00     0.082 A 
ATOM     15  C   UNL d   1      18.262  -2.343   8.062  0.00  0.00     0.040 A 
ATOM     16  C   UNL d   1      17.724  -1.519   9.051  0.00  0.00     0.040 A 
BRANCH  14  17
ATOM     17  O   UNL d   1      19.253  -2.627   5.932  0.00  0.00    -0.359 OA
ATOM     18  H   UNL d   1      18.686  -2.613   5.142  0.00  0.00     0.217 HD
ENDBRANCH  14  17
ENDBRANCH   9  10
ENDBRANCH   6   9
BRANCH   3  19
ATOM     19  C   UNL d   1      17.220  -1.254  15.129  0.00  0.00     0.085 C 
BRANCH  19  20
ATOM     20  CA  UNL d   1      18.644  -1.485  15.658  0.00  0.00     0.318 C 
BRANCH  20  21
ATOM     21  N   UNL d   1      18.944  -2.916  15.663  0.00  0.00     0.093 N 
ATOM     22  H1  UNL d   1      19.531  -3.139  16.465  0.00  0.00     0.314 HD
ATOM     23  H2  UNL d   1      19.496  -3.156  14.840  0.00  0.00     0.314 HD
ENDBRANCH  20  21
BRANCH  20  24
ATOM     24  C   UNL d   1      18.808  -1.001  17.087  0.00  0.00     0.174 C 
ATOM     25  OXT UNL d   1      19.687  -1.372  17.856  0.00  0.00    -0.648 OA
BRANCH  24  26
ATOM     26  O   UNL d   1      17.882  -0.066  17.426  0.00  0.00    -0.775 OA
ATOM     27  H   UNL d   1      17.951   0.735  16.864  0.00  0.00     0.167 HD
ENDBRANCH  24  26
ENDBRANCH  20  24
ENDBRANCH  19  20
ENDBRANCH   3  19
TORSDOF 8
ENDMDL
MODEL 7
REMARK VINA RESULT:      -1.0      5.655      8.409
REMARK  8 active torsions:
REMARK  status: ('A' for Active; 'I' for Inactive)
REMARK    1  A    between atoms: O_4  and  C_14 
REMARK    2  A    between atoms: O_4  and  C_18 
REMARK    3  A    between atoms: O_5  and  C_17 
REMARK    4  A    between atoms: O_7  and  C_23 
REMARK    5  A    between atoms: N_8  and  CA_10 
REMARK    6  A    between atoms: C_9  and  CA_10 
REMARK    7  A    between atoms: C_9  and  C_11 
REMARK    8  A    between atoms: CA_10  and  C_17 
ROOT
ATOM      1  I   UNL d   1      14.230  -8.788  13.558  0.00  0.00    -0.042 I 
ATOM      2  I   UNL d   1      16.529  -9.184  19.198  0.00  0.00    -0.042 I 
ATOM      3  C   UNL d   1      16.378 -11.816  15.772  0.00  0.00    -0.053 A 
ATOM      4  C   UNL d   1      16.612 -11.268  17.023  0.00  0.00     0.028 A 
ATOM      5  C   UNL d   1      15.702 -11.111  14.789  0.00  0.00     0.028 A 
ATOM      6  C   UNL d   1      15.474  -9.256  16.320  0.00  0.00     0.109 A 
ATOM      7  C   UNL d   1      15.247  -9.822  15.066  0.00  0.00     0.042 A 
ATOM      8  C   UNL d   1      16.157  -9.978  17.298  0.00  0.00     0.042 A 
ENDROOT
BRANCH   6   9
ATOM      9  O   UNL d   1      15.028  -7.993  16.590  0.00  0.00    -0.308 OA
BRANCH   9  10
ATOM     10  C   UNL d   1      15.831  -6.936  16.202  0.00  0.00     0.077 A 
ATOM     11  C   UNL d   1      17.195  -7.133  16.075  0.00  0.00     0.058 A 
ATOM     12  C   UNL d   1      18.004  -6.067  15.683  0.00  0.00     0.042 A 
ATOM     13  I   UNL d   1      20.060  -6.389  15.498  0.00  0.00    -0.042 I 
ATOM     14  C   UNL d   1      17.435  -4.818  15.425  0.00  0.00     0.082 A 
ATOM     15  C   UNL d   1      16.059  -4.638  15.558  0.00  0.00     0.040 A 
ATOM     16  C   UNL d   1      15.251  -5.705  15.950  0.00  0.00     0.040 A 
BRANCH  14  17
ATOM     17  O   UNL d   1      18.191  -3.751  15.040  0.00  0.00    -0.359 OA
ATOM     18  H   UNL d   1      17.936  -3.485  14.140  0.00  0.00     0.217 HD
ENDBRANCH  14  17
ENDBRANCH   9  10
ENDBRANCH   6   9
BRANCH   3  19
ATOM     19  C   UNL d   1      16.872 -13.212  15.473  0.00  0.00     0.085 C 
BRANCH  19  20
ATOM     20  CA  UNL d   1      18.272 -13.228  14.838  0.00  0.00     0.318 C 
BRANCH  20  21
ATOM     21  N   UNL d   1      18.281 -14.123  13.683  0.00  0.00     0.093 N 
ATOM     22  H1  UNL d   1      17.407 -14.645  13.648  0.00  0.00     0.314 HD
ATOM     23  H2  UNL d   1      19.017 -14.821  13.792  0.00  0.00     0.314 HD
ENDBRANCH  20  21
BRANCH  20  24
ATOM     24  C   UNL d   1      19.329 -13.745  15.797  0.00  0.00     0.174 C 
ATOM     25  OXT UNL d   1      19.477 -13.359  16.950  0.00  0.00    -0.648 OA
BRANCH  24  26
ATOM     26  O   UNL d   1      20.089 -14.728  15.248  0.00  0.00    -0.775 OA
ATOM     27  H   UNL d   1      19.899 -15.603  15.648  0.00  0.00     0.167 HD
ENDBRANCH  24  26
ENDBRANCH  20  24
ENDBRANCH  19  20
ENDBRANCH   3  19
TORSDOF 8
ENDMDL
MODEL 8
REMARK VINA RESULT:      -1.0      4.603      7.100
REMARK  8 active torsions:
REMARK  status: ('A' for Active; 'I' for Inactive)
REMARK    1  A    between atoms: O_4  and  C_14 
REMARK    2  A    between atoms: O_4  and  C_18 
REMARK    3  A    between atoms: O_5  and  C_17 
REMARK    4  A    between atoms: O_7  and  C_23 
REMARK    5  A    between atoms: N_8  and  CA_10 
REMARK    6  A    between atoms: C_9  and  CA_10 
REMARK    7  A    between atoms: C_9  and  C_11 
REMARK    8  A    between atoms: CA_10  and  C_17 
ROOT
ATOM      1  I   UNL d   1      14.434  -5.473  15.184  0.00  0.00    -0.042 I 
ATOM      2  I   UNL d   1      19.207  -8.949  13.641  0.00  0.00    -0.042 I 
ATOM      3  C   UNL d   1      18.721  -4.923  15.139  0.00  0.00    -0.053 A 
ATOM      4  C   UNL d   1      19.246  -6.118  14.673  0.00  0.00     0.028 A 
ATOM      5  C   UNL d   1      17.356  -4.742  15.284  0.00  0.00     0.028 A 
ATOM      6  C   UNL d   1      17.001  -6.993  14.481  0.00  0.00     0.109 A 
ATOM      7  C   UNL d   1      16.490  -5.784  14.952  0.00  0.00     0.042 A 
ATOM      8  C   UNL d   1      18.379  -7.160  14.342  0.00  0.00     0.042 A 
ENDROOT
BRANCH   6   9
ATOM      9  O   UNL d   1      16.153  -8.013  14.157  0.00  0.00    -0.308 OA
BRANCH   9  10
ATOM     10  C   UNL d   1      15.554  -7.975  12.911  0.00  0.00     0.077 A 
ATOM     11  C   UNL d   1      16.118  -7.200  11.913  0.00  0.00     0.058 A 
ATOM     12  C   UNL d   1      15.513  -7.162  10.657  0.00  0.00     0.042 A 
ATOM     13  I   UNL d   1      16.383  -5.983   9.166  0.00  0.00    -0.042 I 
ATOM     14  C   UNL d   1      14.353  -7.900  10.419  0.00  0.00     0.082 A 
ATOM     15  C   UNL d   1      13.799  -8.676  11.436  0.00  0.00     0.040 A 
ATOM     16  C   UNL d   1      14.405  -8.714  12.692  0.00  0.00     0.040 A 
BRANCH  14  17
ATOM     17  O   UNL d   1      13.732  -7.890   9.205  0.00  0.00    -0.359 OA
ATOM     18  H   UNL d   1      14.238  -8.436   8.580  0.00  0.00     0.217 HD
ENDBRANCH  14  17
ENDBRANCH   9  10
ENDBRANCH   6   9
BRANCH   3  19
ATOM     19  C   UNL d   1      19.660  -3.795  15.499  0.00  0.00     0.085 C 
BRANCH  19  20
ATOM     20  CA  UNL d   1      19.203  -2.438  14.943  0.00  0.00     0.318 C 
BRANCH  20  21
ATOM     21  N   UNL d   1      20.089  -2.023  13.858  0.00  0.00     0.093 N 
ATOM     22  H1  UNL d   1      20.292  -1.029  13.943  0.00  0.00     0.314 HD
ATOM     23  H2  UNL d   1      19.614  -2.135  12.962  0.00  0.00     0.314 HD
ENDBRANCH  20  21
BRANCH  20  24
ATOM     24  C   UNL d   1      19.259  -1.342  15.993  0.00  0.00     0.174 C 
ATOM     25  OXT UNL d   1      20.089  -1.275  16.891  0.00  0.00    -0.648 OA
BRANCH  24  26
ATOM     26  O   UNL d   1      18.295  -0.402  15.812  0.00  0.00    -0.775 OA
ATOM     27  H   UNL d   1      17.944  -0.070  16.666  0.00  0.00     0.167 HD
ENDBRANCH  24  26
ENDBRANCH  20  24
ENDBRANCH  19  20
ENDBRANCH   3  19
TORSDOF 8
ENDMDL
MODEL 9
REMARK VINA RESULT:      -1.0      4.225      5.480
REMARK  8 active torsions:
REMARK  status: ('A' for Active; 'I' for Inactive)
REMARK    1  A    between atoms: O_4  and  C_14 
REMARK    2  A    between atoms: O_4  and  C_18 
REMARK    3  A    between atoms: O_5  and  C_17 
REMARK    4  A    between atoms: O_7  and  C_23 
REMARK    5  A    between atoms: N_8  and  CA_10 
REMARK    6  A    between atoms: C_9  and  CA_10 
REMARK    7  A    between atoms: C_9  and  C_11 
REMARK    8  A    between atoms: CA_10  and  C_17 
ROOT
ATOM      1  I   UNL d   1      14.502  -1.937   8.404  0.00  0.00    -0.042 I 
ATOM      2  I   UNL d   1      20.040   0.575   8.920  0.00  0.00    -0.042 I 
ATOM      3  C   UNL d   1      17.360  -1.485  11.615  0.00  0.00    -0.053 A 
ATOM      4  C   UNL d   1      18.437  -0.809  11.063  0.00  0.00     0.028 A 
ATOM      5  C   UNL d   1      16.244  -1.804  10.859  0.00  0.00     0.028 A 
ATOM      6  C   UNL d   1      17.279  -0.757   8.943  0.00  0.00     0.109 A 
ATOM      7  C   UNL d   1      16.203  -1.437   9.514  0.00  0.00     0.042 A 
ATOM      8  C   UNL d   1      18.395  -0.443   9.718  0.00  0.00     0.042 A 
ENDROOT
BRANCH   6   9
ATOM      9  O   UNL d   1      17.239  -0.399   7.626  0.00  0.00    -0.308 OA
BRANCH   9  10
ATOM     10  C   UNL d   1      17.954  -1.174   6.731  0.00  0.00     0.077 A 
ATOM     11  C   UNL d   1      18.450  -0.592   5.577  0.00  0.00     0.058 A 
ATOM     12  C   UNL d   1      19.171  -1.374   4.676  0.00  0.00     0.042 A 
ATOM     13  I   UNL d   1      19.907  -0.474   2.940  0.00  0.00    -0.042 I 
ATOM     14  C   UNL d   1      19.385  -2.727   4.942  0.00  0.00     0.082 A 
ATOM     15  C   UNL d   1      18.880  -3.297   6.111  0.00  0.00     0.040 A 
ATOM     16  C   UNL d   1      18.159  -2.513   7.012  0.00  0.00     0.040 A 
BRANCH  14  17
ATOM     17  O   UNL d   1      20.085  -3.526   4.087  0.00  0.00    -0.359 OA
ATOM     18  H   UNL d   1      19.649  -3.526   3.218  0.00  0.00     0.217 HD
ENDBRANCH  14  17
ENDBRANCH   9  10
ENDBRANCH   6   9
BRANCH   3  19
ATOM     19  C   UNL d   1      17.405  -1.882  13.072  0.00  0.00     0.085 C 
BRANCH  19  20
ATOM     20  CA  UNL d   1      17.833  -3.343  13.280  0.00  0.00     0.318 C 
BRANCH  20  21
ATOM     21  N   UNL d   1      16.970  -3.974  14.277  0.00  0.00     0.093 N 
ATOM     22  H1  UNL d   1      16.733  -4.918  13.975  0.00  0.00     0.314 HD
ATOM     23  H2  UNL d   1      16.085  -3.470  14.336  0.00  0.00     0.314 HD
ENDBRANCH  20  21
BRANCH  20  24
ATOM     24  C   UNL d   1      19.254  -3.453  13.803  0.00  0.00     0.174 C 
ATOM     25  OXT UNL d   1      20.041  -2.520  13.891  0.00  0.00    -0.648 OA
BRANCH  24  26
ATOM     26  O   UNL d   1      19.561  -4.715  14.205  0.00  0.00    -0.775 OA
ATOM     27  H   UNL d   1      19.475  -4.819  15.176  0.00  0.00     0.167 HD
ENDBRANCH  24  26
ENDBRANCH  20  24
ENDBRANCH  19  20
ENDBRANCH   3  19
TORSDOF 8
ENDMDL
