MODEL 1
REMARK VINA RESULT:      -2.1      0.000      0.000
REMARK  6 active torsions:
REMARK  status: ('A' for Active; 'I' for Inactive)
REMARK    1  A    between atoms: N_8  and  C_18 
REMARK    2  A    between atoms: N_9  and  N_11 
REMARK       I    between atoms: N_9  and  C_22 
REMARK    3  A    between atoms: N_10  and  C_25 
REMARK       I    between atoms: N_11  and  C_27 
REMARK    4  A    between atoms: N_12  and  C_26 
REMARK       I    between atoms: N_12  and  C_27 
REMARK    5  A    between atoms: C_19  and  C_22 
REMARK    6  A    between atoms: C_28  and  C_33 
ROOT
ATOM      1  O   UNL d   1      17.235  -4.539  15.688  0.00  0.00    -0.267 OA
ATOM      2  N   UNL d   1      19.004  -5.638  14.660  0.00  0.00    -0.263 N 
ATOM      3  C   UNL d   1      18.370  -4.548  15.222  0.00  0.00     0.260 C 
ATOM      4  H   UNL d   1      19.946  -5.621  14.283  0.00  0.00     0.190 HD
ENDROOT
BRANCH   2   5
ATOM      5  N   UNL d   1      18.335  -6.836  14.600  0.00  0.00    -0.248 N 
ATOM      6  C   UNL d   1      18.671  -7.849  15.497  0.00  0.00     0.339 C 
ATOM      7  O   UNL d   1      19.546  -7.727  16.353  0.00  0.00    -0.245 OA
ATOM      8  N   UNL d   1      17.878  -8.977  15.271  0.00  0.00    -0.308 N 
ATOM      9  H   UNL d   1      17.197  -8.909  14.519  0.00  0.00     0.170 HD
ATOM     10  H   UNL d   1      17.612  -6.927  13.896  0.00  0.00     0.192 HD
BRANCH   8  11
ATOM     11  C   UNL d   1      17.904 -10.210  15.962  0.00  0.00     0.037 A 
ATOM     12  C   UNL d   1      17.188 -10.362  17.148  0.00  0.00     0.045 A 
ATOM     13  C   UNL d   1      17.214 -11.579  17.829  0.00  0.00     0.050 A 
ATOM     14  C   UNL d   1      17.957 -12.645  17.323  0.00  0.00     0.016 A 
ATOM     15  C   UNL d   1      18.673 -12.495  16.135  0.00  0.00     0.003 A 
ATOM     16  C   UNL d   1      18.647 -11.278  15.455  0.00  0.00     0.029 A 
BRANCH  13  17
ATOM     17  C   UNL d   1      16.448 -11.739  19.099  0.00  0.00     0.417 C 
ATOM     18  F   UNL d   1      16.504 -13.003  19.616  0.00  0.00    -0.166 F 
ATOM     19  F   UNL d   1      15.115 -11.467  18.972  0.00  0.00    -0.166 F 
ATOM     20  F   UNL d   1      16.896 -10.916  20.091  0.00  0.00    -0.166 F 
ENDBRANCH  13  17
ENDBRANCH   8  11
ENDBRANCH   2   5
BRANCH   3  21
ATOM     21  C   UNL d   1      19.241  -3.345  15.203  0.00  0.00     0.078 C 
ATOM     22  C   UNL d   1      19.008  -2.357  14.328  0.00  0.00    -0.071 C 
ATOM     23  C   UNL d   1      19.849  -1.113  14.254  0.00  0.00     0.054 C 
ATOM     24  C   UNL d   1      17.897  -2.401  13.318  0.00  0.00     0.054 C 
ATOM     25  C   UNL d   1      20.381  -0.907  12.834  0.00  0.00     0.127 C 
ATOM     26  N   UNL d   1      19.285  -0.976  11.851  0.00  0.00    -0.380 N 
ATOM     27  C   UNL d   1      18.439  -2.177  11.903  0.00  0.00     0.127 C 
BRANCH  26  28
ATOM     28  C   UNL d   1      19.472  -0.316  10.632  0.00  0.00     0.030 A 
ATOM     29  C   UNL d   1      18.960  -0.866   9.456  0.00  0.00     0.032 A 
ATOM     30  C   UNL d   1      19.144  -0.209   8.240  0.00  0.00     0.038 A 
ATOM     31  C   UNL d   1      19.843   0.999   8.199  0.00  0.00     0.103 A 
ATOM     32  C   UNL d   1      20.355   1.548   9.374  0.00  0.00     0.038 A 
ATOM     33  C   UNL d   1      20.169   0.891  10.590  0.00  0.00     0.032 A 
BRANCH  31  34
ATOM     34  N   UNL d   1      20.033   1.667   6.961  0.00  0.00    -0.116 N 
ATOM     35  O   UNL d   1      20.593   2.790   6.956  0.00  0.00    -0.532 OA
ATOM     36  O   UNL d   1      19.634   1.118   5.905  0.00  0.00    -0.532 OA
ENDBRANCH  31  34
ENDBRANCH  26  28
ENDBRANCH   3  21
TORSDOF 6
ENDMDL
MODEL 2
REMARK VINA RESULT:      -1.9      5.477      8.699
REMARK  6 active torsions:
REMARK  status: ('A' for Active; 'I' for Inactive)
REMARK    1  A    between atoms: N_8  and  C_18 
REMARK    2  A    between atoms: N_9  and  N_11 
REMARK       I    between atoms: N_9  and  C_22 
REMARK    3  A    between atoms: N_10  and  C_25 
REMARK       I    between atoms: N_11  and  C_27 
REMARK    4  A    between atoms: N_12  and  C_26 
REMARK       I    between atoms: N_12  and  C_27 
REMARK    5  A    between atoms: C_19  and  C_22 
REMARK    6  A    between atoms: C_28  and  C_33 
ROOT
ATOM      1  O   UNL d   1      17.697   0.903   8.752  0.00  0.00    -0.267 OA
ATOM      2  N   UNL d   1      19.760  -0.033   9.262  0.00  0.00    -0.263 N 
ATOM      3  C   UNL d   1      18.791   0.463   8.413  0.00  0.00     0.260 C 
ATOM      4  H   UNL d   1      20.660  -0.389   8.958  0.00  0.00     0.190 HD
ENDROOT
BRANCH   2   5
ATOM      5  N   UNL d   1      19.513  -0.050  10.613  0.00  0.00    -0.248 N 
ATOM      6  C   UNL d   1      19.094  -1.237  11.213  0.00  0.00     0.339 C 
ATOM      7  O   UNL d   1      18.932  -2.285  10.591  0.00  0.00    -0.245 OA
ATOM      8  N   UNL d   1      18.900  -1.043  12.583  0.00  0.00    -0.308 N 
ATOM      9  H   UNL d   1      19.081  -0.108  12.939  0.00  0.00     0.170 HD
ATOM     10  H   UNL d   1      19.654   0.816  11.121  0.00  0.00     0.192 HD
BRANCH   8  11
ATOM     11  C   UNL d   1      18.480  -1.992  13.544  0.00  0.00     0.037 A 
ATOM     12  C   UNL d   1      19.281  -3.096  13.833  0.00  0.00     0.045 A 
ATOM     13  C   UNL d   1      18.866  -4.030  14.781  0.00  0.00     0.050 A 
ATOM     14  C   UNL d   1      17.649  -3.860  15.441  0.00  0.00     0.016 A 
ATOM     15  C   UNL d   1      16.848  -2.755  15.154  0.00  0.00     0.003 A 
ATOM     16  C   UNL d   1      17.263  -1.821  14.206  0.00  0.00     0.029 A 
BRANCH  13  17
ATOM     17  C   UNL d   1      19.723  -5.212  15.088  0.00  0.00     0.417 C 
ATOM     18  F   UNL d   1      20.592  -5.534  14.085  0.00  0.00    -0.166 F 
ATOM     19  F   UNL d   1      19.013  -6.356  15.325  0.00  0.00    -0.166 F 
ATOM     20  F   UNL d   1      20.496  -5.026  16.198  0.00  0.00    -0.166 F 
ENDBRANCH  13  17
ENDBRANCH   8  11
ENDBRANCH   2   5
BRANCH   3  21
ATOM     21  C   UNL d   1      19.231   0.405   6.996  0.00  0.00     0.078 C 
ATOM     22  C   UNL d   1      18.872  -0.626   6.219  0.00  0.00    -0.071 C 
ATOM     23  C   UNL d   1      19.281  -0.748   4.777  0.00  0.00     0.054 C 
ATOM     24  C   UNL d   1      18.041  -1.776   6.714  0.00  0.00     0.054 C 
ATOM     25  C   UNL d   1      19.980  -2.086   4.528  0.00  0.00     0.127 C 
ATOM     26  N   UNL d   1      19.167  -3.203   5.039  0.00  0.00    -0.380 N 
ATOM     27  C   UNL d   1      18.743  -3.110   6.445  0.00  0.00     0.127 C 
BRANCH  26  28
ATOM     28  C   UNL d   1      19.366  -4.462   4.462  0.00  0.00     0.030 A 
ATOM     29  C   UNL d   1      20.395  -5.285   4.920  0.00  0.00     0.032 A 
ATOM     30  C   UNL d   1      20.593  -6.540   4.345  0.00  0.00     0.038 A 
ATOM     31  C   UNL d   1      19.762  -6.972   3.310  0.00  0.00     0.103 A 
ATOM     32  C   UNL d   1      18.734  -6.149   2.852  0.00  0.00     0.038 A 
ATOM     33  C   UNL d   1      18.535  -4.894   3.428  0.00  0.00     0.032 A 
BRANCH  31  34
ATOM     34  N   UNL d   1      19.964  -8.249   2.723  0.00  0.00    -0.116 N 
ATOM     35  O   UNL d   1      20.584  -9.125   3.372  0.00  0.00    -0.532 OA
ATOM     36  O   UNL d   1      19.517  -8.466   1.570  0.00  0.00    -0.532 OA
ENDBRANCH  31  34
ENDBRANCH  26  28
ENDBRANCH   3  21
TORSDOF 6
ENDMDL
MODEL 3
REMARK VINA RESULT:      -1.4      7.798     10.224
REMARK  6 active torsions:
REMARK  status: ('A' for Active; 'I' for Inactive)
REMARK    1  A    between atoms: N_8  and  C_18 
REMARK    2  A    between atoms: N_9  and  N_11 
REMARK       I    between atoms: N_9  and  C_22 
REMARK    3  A    between atoms: N_10  and  C_25 
REMARK       I    between atoms: N_11  and  C_27 
REMARK    4  A    between atoms: N_12  and  C_26 
REMARK       I    between atoms: N_12  and  C_27 
REMARK    5  A    between atoms: C_19  and  C_22 
REMARK    6  A    between atoms: C_28  and  C_33 
ROOT
ATOM      1  O   UNL d   1      16.456  -3.934   9.820  0.00  0.00    -0.267 OA
ATOM      2  N   UNL d   1      18.517  -4.095   8.762  0.00  0.00    -0.263 N 
ATOM      3  C   UNL d   1      17.521  -3.442   9.460  0.00  0.00     0.260 C 
ATOM      4  H   UNL d   1      19.392  -3.666   8.477  0.00  0.00     0.190 HD
ENDROOT
BRANCH   2   5
ATOM      5  N   UNL d   1      18.336  -5.412   8.423  0.00  0.00    -0.248 N 
ATOM      6  C   UNL d   1      18.086  -5.745   7.092  0.00  0.00     0.339 C 
ATOM      7  O   UNL d   1      18.018  -4.911   6.191  0.00  0.00    -0.245 OA
ATOM      8  N   UNL d   1      17.934  -7.128   6.960  0.00  0.00    -0.308 N 
ATOM      9  H   UNL d   1      18.022  -7.677   7.811  0.00  0.00     0.170 HD
ATOM     10  H   UNL d   1      18.399  -6.095   9.169  0.00  0.00     0.192 HD
BRANCH   8  11
ATOM     11  C   UNL d   1      17.671  -7.865   5.782  0.00  0.00     0.037 A 
ATOM     12  C   UNL d   1      18.714  -8.199   4.919  0.00  0.00     0.045 A 
ATOM     13  C   UNL d   1      18.454  -8.926   3.758  0.00  0.00     0.050 A 
ATOM     14  C   UNL d   1      17.150  -9.320   3.460  0.00  0.00     0.016 A 
ATOM     15  C   UNL d   1      16.106  -8.988   4.323  0.00  0.00     0.003 A 
ATOM     16  C   UNL d   1      16.366  -8.260   5.484  0.00  0.00     0.029 A 
BRANCH  13  17
ATOM     17  C   UNL d   1      19.570  -9.282   2.835  0.00  0.00     0.417 C 
ATOM     18  F   UNL d   1      20.150  -8.200   2.234  0.00  0.00    -0.166 F 
ATOM     19  F   UNL d   1      19.191 -10.098   1.808  0.00  0.00    -0.166 F 
ATOM     20  F   UNL d   1      20.586  -9.938   3.468  0.00  0.00    -0.166 F 
ENDBRANCH  13  17
ENDBRANCH   8  11
ENDBRANCH   2   5
BRANCH   3  21
ATOM     21  C   UNL d   1      17.889  -2.031   9.739  0.00  0.00     0.078 C 
ATOM     22  C   UNL d   1      18.581  -1.719  10.844  0.00  0.00    -0.071 C 
ATOM     23  C   UNL d   1      18.986  -0.313  11.188  0.00  0.00     0.054 C 
ATOM     24  C   UNL d   1      19.004  -2.740  11.862  0.00  0.00     0.054 C 
ATOM     25  C   UNL d   1      18.494   0.062  12.587  0.00  0.00     0.127 C 
ATOM     26  N   UNL d   1      18.895  -0.959  13.572  0.00  0.00    -0.380 N 
ATOM     27  C   UNL d   1      18.520  -2.346  13.261  0.00  0.00     0.127 C 
BRANCH  26  28
ATOM     28  C   UNL d   1      19.002  -0.557  14.908  0.00  0.00     0.030 A 
ATOM     29  C   UNL d   1      18.943  -1.507  15.929  0.00  0.00     0.032 A 
ATOM     30  C   UNL d   1      19.052  -1.108  17.260  0.00  0.00     0.038 A 
ATOM     31  C   UNL d   1      19.217   0.243  17.572  0.00  0.00     0.103 A 
ATOM     32  C   UNL d   1      19.275   1.192  16.552  0.00  0.00     0.038 A 
ATOM     33  C   UNL d   1      19.168   0.792  15.220  0.00  0.00     0.032 A 
BRANCH  31  34
ATOM     34  N   UNL d   1      19.326   0.650  18.928  0.00  0.00    -0.116 N 
ATOM     35  O   UNL d   1      19.745   1.804  19.185  0.00  0.00    -0.532 OA
ATOM     36  O   UNL d   1      19.000  -0.156  19.833  0.00  0.00    -0.532 OA
ENDBRANCH  31  34
ENDBRANCH  26  28
ENDBRANCH   3  21
TORSDOF 6
ENDMDL
MODEL 4
REMARK VINA RESULT:      -1.3      7.632     13.116
REMARK  6 active torsions:
REMARK  status: ('A' for Active; 'I' for Inactive)
REMARK    1  A    between atoms: N_8  and  C_18 
REMARK    2  A    between atoms: N_9  and  N_11 
REMARK       I    between atoms: N_9  and  C_22 
REMARK    3  A    between atoms: N_10  and  C_25 
REMARK       I    between atoms: N_11  and  C_27 
REMARK    4  A    between atoms: N_12  and  C_26 
REMARK       I    between atoms: N_12  and  C_27 
REMARK    5  A    between atoms: C_19  and  C_22 
REMARK    6  A    between atoms: C_28  and  C_33 
ROOT
ATOM      1  O   UNL d   1      14.055  -2.280   6.735  0.00  0.00    -0.267 OA
ATOM      2  N   UNL d   1      16.210  -1.424   6.859  0.00  0.00    -0.263 N 
ATOM      3  C   UNL d   1      15.254  -2.416   6.954  0.00  0.00     0.260 C 
ATOM      4  H   UNL d   1      17.198  -1.562   7.043  0.00  0.00     0.190 HD
ENDROOT
BRANCH   2   5
ATOM      5  N   UNL d   1      15.820  -0.161   6.487  0.00  0.00    -0.248 N 
ATOM      6  C   UNL d   1      15.732   0.837   7.458  0.00  0.00     0.339 C 
ATOM      7  O   UNL d   1      15.987   0.646   8.645  0.00  0.00    -0.245 OA
ATOM      8  N   UNL d   1      15.323   2.040   6.877  0.00  0.00    -0.308 N 
ATOM      9  H   UNL d   1      15.153   2.026   5.874  0.00  0.00     0.170 HD
ATOM     10  H   UNL d   1      15.617  -0.009   5.506  0.00  0.00     0.192 HD
BRANCH   8  11
ATOM     11  C   UNL d   1      15.113   3.286   7.513  0.00  0.00     0.037 A 
ATOM     12  C   UNL d   1      16.169   4.186   7.651  0.00  0.00     0.045 A 
ATOM     13  C   UNL d   1      15.962   5.414   8.278  0.00  0.00     0.050 A 
ATOM     14  C   UNL d   1      14.698   5.742   8.767  0.00  0.00     0.016 A 
ATOM     15  C   UNL d   1      13.641   4.843   8.629  0.00  0.00     0.003 A 
ATOM     16  C   UNL d   1      13.848   3.615   8.001  0.00  0.00     0.029 A 
BRANCH  13  17
ATOM     17  C   UNL d   1      17.092   6.376   8.426  0.00  0.00     0.417 C 
ATOM     18  F   UNL d   1      18.150   5.874   9.130  0.00  0.00    -0.166 F 
ATOM     19  F   UNL d   1      16.748   7.528   9.075  0.00  0.00    -0.166 F 
ATOM     20  F   UNL d   1      17.605   6.773   7.226  0.00  0.00    -0.166 F 
ENDBRANCH  13  17
ENDBRANCH   8  11
ENDBRANCH   2   5
BRANCH   3  21
ATOM     21  C   UNL d   1      15.855  -3.710   7.364  0.00  0.00     0.078 C 
ATOM     22  C   UNL d   1      16.004  -4.004   8.664  0.00  0.00    -0.071 C 
ATOM     23  C   UNL d   1      16.604  -5.295   9.148  0.00  0.00     0.054 C 
ATOM     24  C   UNL d   1      15.607  -3.065   9.768  0.00  0.00     0.054 C 
ATOM     25  C   UNL d   1      17.775  -5.021  10.094  0.00  0.00     0.127 C 
ATOM     26  N   UNL d   1      17.380  -4.081  11.157  0.00  0.00    -0.380 N 
ATOM     27  C   UNL d   1      16.782  -2.812  10.716  0.00  0.00     0.127 C 
BRANCH  26  28
ATOM     28  C   UNL d   1      18.102  -4.123  12.355  0.00  0.00     0.030 A 
ATOM     29  C   UNL d   1      18.475  -2.936  12.986  0.00  0.00     0.032 A 
ATOM     30  C   UNL d   1      19.194  -2.976  14.180  0.00  0.00     0.038 A 
ATOM     31  C   UNL d   1      19.542  -4.205  14.743  0.00  0.00     0.103 A 
ATOM     32  C   UNL d   1      19.170  -5.392  14.112  0.00  0.00     0.038 A 
ATOM     33  C   UNL d   1      18.450  -5.351  12.918  0.00  0.00     0.032 A 
BRANCH  31  34
ATOM     34  N   UNL d   1      20.276  -4.247  15.958  0.00  0.00    -0.116 N 
ATOM     35  O   UNL d   1      20.592  -3.169  16.515  0.00  0.00    -0.532 OA
ATOM     36  O   UNL d   1      20.589  -5.363  16.441  0.00  0.00    -0.532 OA
ENDBRANCH  31  34
ENDBRANCH  26  28
ENDBRANCH   3  21
TORSDOF 6
ENDMDL
MODEL 5
REMARK VINA RESULT:      -1.3      5.526      6.683
REMARK  6 active torsions:
REMARK  status: ('A' for Active; 'I' for Inactive)
REMARK    1  A    between atoms: N_8  and  C_18 
REMARK    2  A    between atoms: N_9  and  N_11 
REMARK       I    between atoms: N_9  and  C_22 
REMARK    3  A    between atoms: N_10  and  C_25 
REMARK       I    between atoms: N_11  and  C_27 
REMARK    4  A    between atoms: N_12  and  C_26 
REMARK       I    between atoms: N_12  and  C_27 
REMARK    5  A    between atoms: C_19  and  C_22 
REMARK    6  A    between atoms: C_28  and  C_33 
ROOT
ATOM      1  O   UNL d   1      11.859  -3.363  13.338  0.00  0.00    -0.267 OA
ATOM      2  N   UNL d   1      12.886  -3.077  15.402  0.00  0.00    -0.263 N 
ATOM      3  C   UNL d   1      12.125  -2.678  14.321  0.00  0.00     0.260 C 
ATOM      4  H   UNL d   1      13.090  -2.492  16.205  0.00  0.00     0.190 HD
ENDROOT
BRANCH   2   5
ATOM      5  N   UNL d   1      13.408  -4.346  15.413  0.00  0.00    -0.248 N 
ATOM      6  C   UNL d   1      14.739  -4.538  15.042  0.00  0.00     0.339 C 
ATOM      7  O   UNL d   1      15.482  -3.620  14.701  0.00  0.00    -0.245 OA
ATOM      8  N   UNL d   1      15.072  -5.893  15.122  0.00  0.00    -0.308 N 
ATOM      9  H   UNL d   1      14.335  -6.524  15.425  0.00  0.00     0.170 HD
ATOM     10  H   UNL d   1      12.793  -5.098  15.700  0.00  0.00     0.192 HD
BRANCH   8  11
ATOM     11  C   UNL d   1      16.316  -6.501  14.833  0.00  0.00     0.037 A 
ATOM     12  C   UNL d   1      17.334  -6.495  15.785  0.00  0.00     0.045 A 
ATOM     13  C   UNL d   1      18.560  -7.095  15.498  0.00  0.00     0.050 A 
ATOM     14  C   UNL d   1      18.768  -7.701  14.259  0.00  0.00     0.016 A 
ATOM     15  C   UNL d   1      17.749  -7.708  13.307  0.00  0.00     0.003 A 
ATOM     16  C   UNL d   1      16.523  -7.108  13.593  0.00  0.00     0.029 A 
BRANCH  13  17
ATOM     17  C   UNL d   1      19.650  -7.088  16.517  0.00  0.00     0.417 C 
ATOM     18  F   UNL d   1      20.592  -8.057  16.317  0.00  0.00    -0.166 F 
ATOM     19  F   UNL d   1      19.206  -7.282  17.794  0.00  0.00    -0.166 F 
ATOM     20  F   UNL d   1      20.336  -5.909  16.544  0.00  0.00    -0.166 F 
ENDBRANCH  13  17
ENDBRANCH   8  11
ENDBRANCH   2   5
BRANCH   3  21
ATOM     21  C   UNL d   1      11.644  -1.282  14.482  0.00  0.00     0.078 C 
ATOM     22  C   UNL d   1      12.378  -0.258  14.024  0.00  0.00    -0.071 C 
ATOM     23  C   UNL d   1      11.952   1.178  14.154  0.00  0.00     0.054 C 
ATOM     24  C   UNL d   1      13.711  -0.439  13.355  0.00  0.00     0.054 C 
ATOM     25  C   UNL d   1      13.039   2.001  14.848  0.00  0.00     0.127 C 
ATOM     26  N   UNL d   1      14.345   1.796  14.197  0.00  0.00    -0.380 N 
ATOM     27  C   UNL d   1      14.787   0.401  14.048  0.00  0.00     0.127 C 
BRANCH  26  28
ATOM     28  C   UNL d   1      15.299   2.810  14.334  0.00  0.00     0.030 A 
ATOM     29  C   UNL d   1      15.935   3.327  13.205  0.00  0.00     0.032 A 
ATOM     30  C   UNL d   1      16.885   4.338  13.342  0.00  0.00     0.038 A 
ATOM     31  C   UNL d   1      17.201   4.833  14.608  0.00  0.00     0.103 A 
ATOM     32  C   UNL d   1      16.566   4.316  15.737  0.00  0.00     0.038 A 
ATOM     33  C   UNL d   1      15.614   3.305  15.600  0.00  0.00     0.032 A 
BRANCH  31  34
ATOM     34  N   UNL d   1      18.170   5.861  14.748  0.00  0.00    -0.116 N 
ATOM     35  O   UNL d   1      18.514   6.515  13.734  0.00  0.00    -0.532 OA
ATOM     36  O   UNL d   1      18.657   6.089  15.882  0.00  0.00    -0.532 OA
ENDBRANCH  31  34
ENDBRANCH  26  28
ENDBRANCH   3  21
TORSDOF 6
ENDMDL
MODEL 6
REMARK VINA RESULT:      -1.3      5.189      7.385
REMARK  6 active torsions:
REMARK  status: ('A' for Active; 'I' for Inactive)
REMARK    1  A    between atoms: N_8  and  C_18 
REMARK    2  A    between atoms: N_9  and  N_11 
REMARK       I    between atoms: N_9  and  C_22 
REMARK    3  A    between atoms: N_10  and  C_25 
REMARK       I    between atoms: N_11  and  C_27 
REMARK    4  A    between atoms: N_12  and  C_26 
REMARK       I    between atoms: N_12  and  C_27 
REMARK    5  A    between atoms: C_19  and  C_22 
REMARK    6  A    between atoms: C_28  and  C_33 
ROOT
ATOM      1  O   UNL d   1      16.347  -3.963   9.805  0.00  0.00    -0.267 OA
ATOM      2  N   UNL d   1      18.340  -4.133   8.625  0.00  0.00    -0.263 N 
ATOM      3  C   UNL d   1      17.394  -3.478   9.387  0.00  0.00     0.260 C 
ATOM      4  H   UNL d   1      19.200  -3.710   8.293  0.00  0.00     0.190 HD
ENDROOT
BRANCH   2   5
ATOM      5  N   UNL d   1      18.124  -5.445   8.285  0.00  0.00    -0.248 N 
ATOM      6  C   UNL d   1      18.920  -6.436   8.859  0.00  0.00     0.339 C 
ATOM      7  O   UNL d   1      19.817  -6.197   9.664  0.00  0.00    -0.245 OA
ATOM      8  N   UNL d   1      18.541  -7.695   8.385  0.00  0.00    -0.308 N 
ATOM      9  H   UNL d   1      17.773  -7.716   7.718  0.00  0.00     0.170 HD
ATOM     10  H   UNL d   1      17.380  -5.637   7.624  0.00  0.00     0.192 HD
BRANCH   8  11
ATOM     11  C   UNL d   1      19.094  -8.953   8.718  0.00  0.00     0.037 A 
ATOM     12  C   UNL d   1      18.695  -9.604   9.884  0.00  0.00     0.045 A 
ATOM     13  C   UNL d   1      19.241 -10.845  10.212  0.00  0.00     0.050 A 
ATOM     14  C   UNL d   1      20.187 -11.434   9.374  0.00  0.00     0.016 A 
ATOM     15  C   UNL d   1      20.586 -10.783   8.207  0.00  0.00     0.003 A 
ATOM     16  C   UNL d   1      20.040  -9.543   7.879  0.00  0.00     0.029 A 
BRANCH  13  17
ATOM     17  C   UNL d   1      18.814 -11.541  11.461  0.00  0.00     0.417 C 
ATOM     18  F   UNL d   1      19.175 -10.886  12.604  0.00  0.00    -0.166 F 
ATOM     19  F   UNL d   1      19.335 -12.798  11.592  0.00  0.00    -0.166 F 
ATOM     20  F   UNL d   1      17.461 -11.697  11.539  0.00  0.00    -0.166 F 
ENDBRANCH  13  17
ENDBRANCH   8  11
ENDBRANCH   2   5
BRANCH   3  21
ATOM     21  C   UNL d   1      17.793  -2.073   9.658  0.00  0.00     0.078 C 
ATOM     22  C   UNL d   1      18.496  -1.770  10.758  0.00  0.00    -0.071 C 
ATOM     23  C   UNL d   1      18.932  -0.371  11.093  0.00  0.00     0.054 C 
ATOM     24  C   UNL d   1      18.900  -2.794  11.780  0.00  0.00     0.054 C 
ATOM     25  C   UNL d   1      18.453   0.021  12.492  0.00  0.00     0.127 C 
ATOM     26  N   UNL d   1      18.836  -1.002  13.481  0.00  0.00    -0.380 N 
ATOM     27  C   UNL d   1      18.430  -2.383  13.178  0.00  0.00     0.127 C 
BRANCH  26  28
ATOM     28  C   UNL d   1      18.957  -0.596  14.814  0.00  0.00     0.030 A 
ATOM     29  C   UNL d   1      18.882  -1.538  15.840  0.00  0.00     0.032 A 
ATOM     30  C   UNL d   1      19.004  -1.134  17.169  0.00  0.00     0.038 A 
ATOM     31  C   UNL d   1      19.200   0.214  17.473  0.00  0.00     0.103 A 
ATOM     32  C   UNL d   1      19.274   1.156  16.448  0.00  0.00     0.038 A 
ATOM     33  C   UNL d   1      19.153   0.751  15.118  0.00  0.00     0.032 A 
BRANCH  31  34
ATOM     34  N   UNL d   1      19.322   0.626  18.826  0.00  0.00    -0.116 N 
ATOM     35  O   UNL d   1      19.761   1.774  19.075  0.00  0.00    -0.532 OA
ATOM     36  O   UNL d   1      18.989  -0.171  19.737  0.00  0.00    -0.532 OA
ENDBRANCH  31  34
ENDBRANCH  26  28
ENDBRANCH   3  21
TORSDOF 6
ENDMDL
MODEL 7
REMARK VINA RESULT:      -1.2      6.001      7.121
REMARK  6 active torsions:
REMARK  status: ('A' for Active; 'I' for Inactive)
REMARK    1  A    between atoms: N_8  and  C_18 
REMARK    2  A    between atoms: N_9  and  N_11 
REMARK       I    between atoms: N_9  and  C_22 
REMARK    3  A    between atoms: N_10  and  C_25 
REMARK       I    between atoms: N_11  and  C_27 
REMARK    4  A    between atoms: N_12  and  C_26 
REMARK       I    between atoms: N_12  and  C_27 
REMARK    5  A    between atoms: C_19  and  C_22 
REMARK    6  A    between atoms: C_28  and  C_33 
ROOT
ATOM      1  O   UNL d   1      11.798  -3.335  13.244  0.00  0.00    -0.267 OA
ATOM      2  N   UNL d   1      12.727  -3.216  15.370  0.00  0.00    -0.263 N 
ATOM      3  C   UNL d   1      11.943  -2.771  14.324  0.00  0.00     0.260 C 
ATOM      4  H   UNL d   1      12.828  -2.731  16.255  0.00  0.00     0.190 HD
ENDROOT
BRANCH   2   5
ATOM      5  N   UNL d   1      13.420  -4.392  15.225  0.00  0.00    -0.248 N 
ATOM      6  C   UNL d   1      14.504  -4.651  16.063  0.00  0.00     0.339 C 
ATOM      7  O   UNL d   1      14.879  -3.873  16.938  0.00  0.00    -0.245 OA
ATOM      8  N   UNL d   1      15.067  -5.892  15.755  0.00  0.00    -0.308 N 
ATOM      9  H   UNL d   1      14.631  -6.413  14.998  0.00  0.00     0.170 HD
ATOM     10  H   UNL d   1      13.102  -5.032  14.506  0.00  0.00     0.192 HD
BRANCH   8  11
ATOM     11  C   UNL d   1      16.176  -6.520  16.368  0.00  0.00     0.037 A 
ATOM     12  C   UNL d   1      16.000  -7.266  17.533  0.00  0.00     0.045 A 
ATOM     13  C   UNL d   1      17.094  -7.885  18.137  0.00  0.00     0.050 A 
ATOM     14  C   UNL d   1      18.364  -7.758  17.576  0.00  0.00     0.016 A 
ATOM     15  C   UNL d   1      18.541  -7.013  16.410  0.00  0.00     0.003 A 
ATOM     16  C   UNL d   1      17.447  -6.394  15.807  0.00  0.00     0.029 A 
BRANCH  13  17
ATOM     17  C   UNL d   1      16.905  -8.682  19.384  0.00  0.00     0.417 C 
ATOM     18  F   UNL d   1      17.887  -8.485  20.314  0.00  0.00    -0.166 F 
ATOM     19  F   UNL d   1      16.882 -10.032  19.172  0.00  0.00    -0.166 F 
ATOM     20  F   UNL d   1      15.733  -8.393  20.020  0.00  0.00    -0.166 F 
ENDBRANCH  13  17
ENDBRANCH   8  11
ENDBRANCH   2   5
BRANCH   3  21
ATOM     21  C   UNL d   1      11.270  -1.490  14.658  0.00  0.00     0.078 C 
ATOM     22  C   UNL d   1      11.882  -0.322  14.416  0.00  0.00    -0.071 C 
ATOM     23  C   UNL d   1      11.258   1.010  14.730  0.00  0.00     0.054 C 
ATOM     24  C   UNL d   1      13.261  -0.225  13.828  0.00  0.00     0.054 C 
ATOM     25  C   UNL d   1      12.185   1.841  15.619  0.00  0.00     0.127 C 
ATOM     26  N   UNL d   1      13.539   1.909  15.044  0.00  0.00    -0.380 N 
ATOM     27  C   UNL d   1      14.174   0.622  14.719  0.00  0.00     0.127 C 
BRANCH  26  28
ATOM     28  C   UNL d   1      14.339   2.999  15.404  0.00  0.00     0.030 A 
ATOM     29  C   UNL d   1      13.808   4.025  16.187  0.00  0.00     0.032 A 
ATOM     30  C   UNL d   1      14.604   5.111  16.547  0.00  0.00     0.038 A 
ATOM     31  C   UNL d   1      15.932   5.174  16.122  0.00  0.00     0.103 A 
ATOM     32  C   UNL d   1      16.462   4.150  15.339  0.00  0.00     0.038 A 
ATOM     33  C   UNL d   1      15.666   3.062  14.980  0.00  0.00     0.032 A 
BRANCH  31  34
ATOM     34  N   UNL d   1      16.743   6.281  16.487  0.00  0.00    -0.116 N 
ATOM     35  O   UNL d   1      16.362   7.034  17.416  0.00  0.00    -0.532 OA
ATOM     36  O   UNL d   1      17.818   6.478  15.869  0.00  0.00    -0.532 OA
ENDBRANCH  31  34
ENDBRANCH  26  28
ENDBRANCH   3  21
TORSDOF 6
ENDMDL
MODEL 8
REMARK VINA RESULT:      -1.2      6.035      8.528
REMARK  6 active torsions:
REMARK  status: ('A' for Active; 'I' for Inactive)
REMARK    1  A    between atoms: N_8  and  C_18 
REMARK    2  A    between atoms: N_9  and  N_11 
REMARK       I    between atoms: N_9  and  C_22 
REMARK    3  A    between atoms: N_10  and  C_25 
REMARK       I    between atoms: N_11  and  C_27 
REMARK    4  A    between atoms: N_12  and  C_26 
REMARK       I    between atoms: N_12  and  C_27 
REMARK    5  A    between atoms: C_19  and  C_22 
REMARK    6  A    between atoms: C_28  and  C_33 
ROOT
ATOM      1  O   UNL d   1      12.055  -3.211   9.718  0.00  0.00    -0.267 OA
ATOM      2  N   UNL d   1      14.051  -2.034   9.872  0.00  0.00    -0.263 N 
ATOM      3  C   UNL d   1      12.907  -2.471   9.235  0.00  0.00     0.260 C 
ATOM      4  H   UNL d   1      14.741  -1.420   9.452  0.00  0.00     0.190 HD
ENDROOT
BRANCH   2   5
ATOM      5  N   UNL d   1      14.290  -2.442  11.161  0.00  0.00    -0.248 N 
ATOM      6  C   UNL d   1      15.523  -2.158  11.748  0.00  0.00     0.339 C 
ATOM      7  O   UNL d   1      16.421  -1.552  11.167  0.00  0.00    -0.245 OA
ATOM      8  N   UNL d   1      15.562  -2.654  13.053  0.00  0.00    -0.308 N 
ATOM      9  H   UNL d   1      14.727  -3.132  13.382  0.00  0.00     0.170 HD
ATOM     10  H   UNL d   1      13.543  -2.936  11.636  0.00  0.00     0.192 HD
BRANCH   8  11
ATOM     11  C   UNL d   1      16.625  -2.574  13.982  0.00  0.00     0.037 A 
ATOM     12  C   UNL d   1      17.594  -3.576  14.023  0.00  0.00     0.045 A 
ATOM     13  C   UNL d   1      18.642  -3.496  14.940  0.00  0.00     0.050 A 
ATOM     14  C   UNL d   1      18.722  -2.414  15.815  0.00  0.00     0.016 A 
ATOM     15  C   UNL d   1      17.754  -1.410  15.774  0.00  0.00     0.003 A 
ATOM     16  C   UNL d   1      16.706  -1.490  14.857  0.00  0.00     0.029 A 
BRANCH  13  17
ATOM     17  C   UNL d   1      19.677  -4.569  14.984  0.00  0.00     0.417 C 
ATOM     18  F   UNL d   1      20.592  -4.490  13.972  0.00  0.00    -0.166 F 
ATOM     19  F   UNL d   1      19.161  -5.831  14.897  0.00  0.00    -0.166 F 
ATOM     20  F   UNL d   1      20.405  -4.551  16.138  0.00  0.00    -0.166 F 
ENDBRANCH  13  17
ENDBRANCH   8  11
ENDBRANCH   2   5
BRANCH   3  21
ATOM     21  C   UNL d   1      12.814  -1.932   7.855  0.00  0.00     0.078 C 
ATOM     22  C   UNL d   1      13.422  -2.562   6.840  0.00  0.00    -0.071 C 
ATOM     23  C   UNL d   1      13.369  -2.071   5.420  0.00  0.00     0.054 C 
ATOM     24  C   UNL d   1      14.235  -3.813   7.022  0.00  0.00     0.054 C 
ATOM     25  C   UNL d   1      14.781  -1.902   4.857  0.00  0.00     0.127 C 
ATOM     26  N   UNL d   1      15.576  -3.126   5.062  0.00  0.00    -0.380 N 
ATOM     27  C   UNL d   1      15.641  -3.636   6.440  0.00  0.00     0.127 C 
BRANCH  26  28
ATOM     28  C   UNL d   1      16.649  -3.350   4.193  0.00  0.00     0.030 A 
ATOM     29  C   UNL d   1      16.917  -2.444   3.166  0.00  0.00     0.032 A 
ATOM     30  C   UNL d   1      17.986  -2.667   2.300  0.00  0.00     0.038 A 
ATOM     31  C   UNL d   1      18.789  -3.798   2.460  0.00  0.00     0.103 A 
ATOM     32  C   UNL d   1      18.521  -4.704   3.485  0.00  0.00     0.038 A 
ATOM     33  C   UNL d   1      17.451  -4.480   4.352  0.00  0.00     0.032 A 
BRANCH  31  34
ATOM     34  N   UNL d   1      19.877  -4.026   1.577  0.00  0.00    -0.116 N 
ATOM     35  O   UNL d   1      20.095  -5.192   1.168  0.00  0.00    -0.532 OA
ATOM     36  O   UNL d   1      20.593  -3.055   1.230  0.00  0.00    -0.532 OA
ENDBRANCH  31  34
ENDBRANCH  26  28
ENDBRANCH   3  21
TORSDOF 6
ENDMDL
MODEL 9
REMARK VINA RESULT:      -1.2     11.530     13.900
REMARK  6 active torsions:
REMARK  status: ('A' for Active; 'I' for Inactive)
REMARK    1  A    between atoms: N_8  and  C_18 
REMARK    2  A    between atoms: N_9  and  N_11 
REMARK       I    between atoms: N_9  and  C_22 
REMARK    3  A    between atoms: N_10  and  C_25 
REMARK       I    between atoms: N_11  and  C_27 
REMARK    4  A    between atoms: N_12  and  C_26 
REMARK       I    between atoms: N_12  and  C_27 
REMARK    5  A    between atoms: C_19  and  C_22 
REMARK    6  A    between atoms: C_28  and  C_33 
ROOT
ATOM      1  O   UNL d   1      19.302  -4.110   6.091  0.00  0.00    -0.267 OA
ATOM      2  N   UNL d   1      19.945  -2.857   4.245  0.00  0.00    -0.263 N 
ATOM      3  C   UNL d   1      19.875  -3.146   5.593  0.00  0.00     0.260 C 
ATOM      4  H   UNL d   1      20.428  -2.054   3.857  0.00  0.00     0.190 HD
ENDROOT
BRANCH   2   5
ATOM      5  N   UNL d   1      19.332  -3.701   3.353  0.00  0.00    -0.248 N 
ATOM      6  C   UNL d   1      19.693  -3.648   2.007  0.00  0.00     0.339 C 
ATOM      7  O   UNL d   1      20.543  -2.876   1.568  0.00  0.00    -0.245 OA
ATOM      8  N   UNL d   1      18.958  -4.582   1.272  0.00  0.00    -0.308 N 
ATOM      9  H   UNL d   1      18.291  -5.146   1.793  0.00  0.00     0.170 HD
ATOM     10  H   UNL d   1      18.636  -4.339   3.721  0.00  0.00     0.192 HD
BRANCH   8  11
ATOM     11  C   UNL d   1      19.025  -4.843  -0.116  0.00  0.00     0.037 A 
ATOM     12  C   UNL d   1      18.220  -4.127  -1.001  0.00  0.00     0.045 A 
ATOM     13  C   UNL d   1      18.286  -4.386  -2.370  0.00  0.00     0.050 A 
ATOM     14  C   UNL d   1      19.158  -5.361  -2.854  0.00  0.00     0.016 A 
ATOM     15  C   UNL d   1      19.965  -6.077  -1.969  0.00  0.00     0.003 A 
ATOM     16  C   UNL d   1      19.898  -5.818  -0.600  0.00  0.00     0.029 A 
BRANCH  13  17
ATOM     17  C   UNL d   1      17.424  -3.620  -3.316  0.00  0.00     0.417 C 
ATOM     18  F   UNL d   1      17.547  -2.265  -3.195  0.00  0.00    -0.166 F 
ATOM     19  F   UNL d   1      16.089  -3.871  -3.165  0.00  0.00    -0.166 F 
ATOM     20  F   UNL d   1      17.702  -3.898  -4.623  0.00  0.00    -0.166 F 
ENDBRANCH  13  17
ENDBRANCH   8  11
ENDBRANCH   2   5
BRANCH   3  21
ATOM     21  C   UNL d   1      20.593  -2.131   6.404  0.00  0.00     0.078 C 
ATOM     22  C   UNL d   1      19.925  -1.100   6.941  0.00  0.00    -0.071 C 
ATOM     23  C   UNL d   1      20.589  -0.037   7.772  0.00  0.00     0.054 C 
ATOM     24  C   UNL d   1      18.449  -0.890   6.751  0.00  0.00     0.054 C 
ATOM     25  C   UNL d   1      20.294   1.352   7.203  0.00  0.00     0.127 C 
ATOM     26  N   UNL d   1      18.846   1.537   6.998  0.00  0.00    -0.380 N 
ATOM     27  C   UNL d   1      18.166   0.509   6.196  0.00  0.00     0.127 C 
BRANCH  26  28
ATOM     28  C   UNL d   1      18.358   2.848   6.995  0.00  0.00     0.030 A 
ATOM     29  C   UNL d   1      17.082   3.116   6.498  0.00  0.00     0.032 A 
ATOM     30  C   UNL d   1      16.595   4.422   6.495  0.00  0.00     0.038 A 
ATOM     31  C   UNL d   1      17.384   5.462   6.990  0.00  0.00     0.103 A 
ATOM     32  C   UNL d   1      18.659   5.194   7.487  0.00  0.00     0.038 A 
ATOM     33  C   UNL d   1      19.146   3.887   7.490  0.00  0.00     0.032 A 
BRANCH  31  34
ATOM     34  N   UNL d   1      16.889   6.793   6.987  0.00  0.00    -0.116 N 
ATOM     35  O   UNL d   1      15.724   7.008   6.571  0.00  0.00    -0.532 OA
ATOM     36  O   UNL d   1      17.630   7.719   7.398  0.00  0.00    -0.532 OA
ENDBRANCH  31  34
ENDBRANCH  26  28
ENDBRANCH   3  21
TORSDOF 6
ENDMDL
