MODEL 1
REMARK VINA RESULT:      -6.8      0.000      0.000
REMARK  1 active torsions:
REMARK  status: ('A' for Active; 'I' for Inactive)
REMARK    1  A    between atoms: O_1  and  C_13 
ROOT
ATOM      1  O   UNL d   1       1.502   6.577  11.847  0.00  0.00    -0.298 OA
ATOM      2  C   UNL d   1       7.233   5.896   9.067  0.00  0.00    -0.005 C 
ATOM      3  C   UNL d   1       6.873   6.084  10.574  0.00  0.00    -0.002 C 
ATOM      4  C   UNL d   1       8.746   6.073   8.901  0.00  0.00     0.001 C 
ATOM      5  C   UNL d   1       9.561   5.060   9.728  0.00  0.00    -0.014 C 
ATOM      6  C   UNL d   1       5.325   5.974  10.840  0.00  0.00    -0.036 C 
ATOM      7  C   UNL d   1       4.584   6.972   9.894  0.00  0.00     0.001 C 
ATOM      8  C   UNL d   1       7.743   5.185  11.497  0.00  0.00     0.007 C 
ATOM      9  C   UNL d   1       9.252   5.299  11.213  0.00  0.00     0.012 C 
ATOM     10  C   UNL d   1       6.458   6.890   8.193  0.00  0.00     0.006 C 
ATOM     11  C   UNL d   1       9.360   5.969   7.507  0.00  0.00     0.008 C 
ATOM     12  C   UNL d   1      10.981   5.466   9.293  0.00  0.00     0.126 C 
ATOM     13  C   UNL d   1       4.953   6.791   8.416  0.00  0.00     0.006 C 
ATOM     14  C   UNL d   1      10.853   5.708   7.776  0.00  0.00     0.033 C 
ATOM     15  C   UNL d   1       5.012   6.366  12.320  0.00  0.00     0.017 C 
ATOM     16  C   UNL d   1       9.293   3.574   9.376  0.00  0.00     0.018 C 
ATOM     17  C   UNL d   1       4.830   4.521  10.612  0.00  0.00     0.016 C 
ATOM     18  C   UNL d   1       3.058   6.920  10.063  0.00  0.00     0.083 C 
ATOM     19  C   UNL d   1       3.718   7.149  12.541  0.00  0.00     0.079 C 
ATOM     20  C   UNL d   1       2.661   6.829  11.517  0.00  0.00     0.127 C 
ENDROOT
BRANCH  12  21
ATOM     21  O   UNL d   1      11.953   4.479   9.586  0.00  0.00    -0.395 OA
ATOM     22  H   UNL d   1      11.518   3.611   9.624  0.00  0.00     0.210 HD
ENDBRANCH  12  21
TORSDOF 1
ENDMDL
MODEL 2
REMARK VINA RESULT:      -6.4      2.036      6.460
REMARK  1 active torsions:
REMARK  status: ('A' for Active; 'I' for Inactive)
REMARK    1  A    between atoms: O_1  and  C_13 
ROOT
ATOM      1  O   UNL d   1      10.734   5.940   6.702  0.00  0.00    -0.298 OA
ATOM      2  C   UNL d   1       7.067   3.934  11.556  0.00  0.00    -0.005 C 
ATOM      3  C   UNL d   1       7.182   5.352  10.915  0.00  0.00    -0.002 C 
ATOM      4  C   UNL d   1       6.273   4.052  12.861  0.00  0.00     0.001 C 
ATOM      5  C   UNL d   1       4.852   4.609  12.649  0.00  0.00    -0.014 C 
ATOM      6  C   UNL d   1       8.033   5.344   9.590  0.00  0.00    -0.036 C 
ATOM      7  C   UNL d   1       9.416   4.683   9.889  0.00  0.00     0.001 C 
ATOM      8  C   UNL d   1       5.796   6.043  10.778  0.00  0.00     0.007 C 
ATOM      9  C   UNL d   1       4.977   6.029  12.081  0.00  0.00     0.012 C 
ATOM     10  C   UNL d   1       8.456   3.334  11.804  0.00  0.00     0.006 C 
ATOM     11  C   UNL d   1       6.042   2.803  13.710  0.00  0.00     0.008 C 
ATOM     12  C   UNL d   1       4.334   4.537  14.097  0.00  0.00     0.126 C 
ATOM     13  C   UNL d   1       9.295   3.295  10.532  0.00  0.00     0.006 C 
ATOM     14  C   UNL d   1       4.855   3.181  14.614  0.00  0.00     0.033 C 
ATOM     15  C   UNL d   1       8.276   6.811   9.108  0.00  0.00     0.017 C 
ATOM     16  C   UNL d   1       3.957   3.754  11.714  0.00  0.00     0.018 C 
ATOM     17  C   UNL d   1       7.285   4.585   8.462  0.00  0.00     0.016 C 
ATOM     18  C   UNL d   1      10.312   4.606   8.643  0.00  0.00     0.083 C 
ATOM     19  C   UNL d   1       9.649   7.090   8.496  0.00  0.00     0.079 C 
ATOM     20  C   UNL d   1      10.249   5.879   7.832  0.00  0.00     0.127 C 
ENDROOT
BRANCH  12  21
ATOM     21  O   UNL d   1       2.924   4.626  14.186  0.00  0.00    -0.395 OA
ATOM     22  H   UNL d   1       2.545   4.500  13.301  0.00  0.00     0.210 HD
ENDBRANCH  12  21
TORSDOF 1
ENDMDL
MODEL 3
REMARK VINA RESULT:      -6.3      2.091      2.738
REMARK  1 active torsions:
REMARK  status: ('A' for Active; 'I' for Inactive)
REMARK    1  A    between atoms: O_1  and  C_13 
ROOT
ATOM      1  O   UNL d   1       2.105   3.641  14.463  0.00  0.00    -0.298 OA
ATOM      2  C   UNL d   1       7.194   4.924  10.790  0.00  0.00    -0.005 C 
ATOM      3  C   UNL d   1       7.060   3.948  12.001  0.00  0.00    -0.002 C 
ATOM      4  C   UNL d   1       8.680   5.077  10.449  0.00  0.00     0.001 C 
ATOM      5  C   UNL d   1       9.349   3.740  10.075  0.00  0.00    -0.014 C 
ATOM      6  C   UNL d   1       5.566   3.768  12.463  0.00  0.00    -0.036 C 
ATOM      7  C   UNL d   1       4.952   5.179  12.732  0.00  0.00     0.001 C 
ATOM      8  C   UNL d   1       7.817   2.613  11.758  0.00  0.00     0.007 C 
ATOM      9  C   UNL d   1       9.272   2.812  11.295  0.00  0.00     0.012 C 
ATOM     10  C   UNL d   1       6.555   6.281  11.110  0.00  0.00     0.006 C 
ATOM     11  C   UNL d   1       9.092   6.011   9.313  0.00  0.00     0.008 C 
ATOM     12  C   UNL d   1      10.763   4.251   9.742  0.00  0.00     0.126 C 
ATOM     13  C   UNL d   1       5.100   6.137  11.542  0.00  0.00     0.006 C 
ATOM     14  C   UNL d   1      10.514   5.549   8.949  0.00  0.00     0.033 C 
ATOM     15  C   UNL d   1       5.518   2.944  13.791  0.00  0.00     0.017 C 
ATOM     16  C   UNL d   1       8.729   3.030   8.844  0.00  0.00     0.018 C 
ATOM     17  C   UNL d   1       4.748   3.000  11.392  0.00  0.00     0.016 C 
ATOM     18  C   UNL d   1       3.480   5.107  13.167  0.00  0.00     0.083 C 
ATOM     19  C   UNL d   1       4.457   3.376  14.803  0.00  0.00     0.079 C 
ATOM     20  C   UNL d   1       3.245   3.987  14.152  0.00  0.00     0.127 C 
ENDROOT
BRANCH  12  21
ATOM     21  O   UNL d   1      11.527   3.320   8.999  0.00  0.00    -0.395 OA
ATOM     22  H   UNL d   1      12.192   3.801   8.480  0.00  0.00     0.210 HD
ENDBRANCH  12  21
TORSDOF 1
ENDMDL
MODEL 4
REMARK VINA RESULT:      -6.0      9.434     11.861
REMARK  1 active torsions:
REMARK  status: ('A' for Active; 'I' for Inactive)
REMARK    1  A    between atoms: O_1  and  C_13 
ROOT
ATOM      1  O   UNL d   1      10.353  -3.280  10.947  0.00  0.00    -0.298 OA
ATOM      2  C   UNL d   1      14.562  -1.672   6.394  0.00  0.00    -0.005 C 
ATOM      3  C   UNL d   1      14.654  -2.781   7.488  0.00  0.00    -0.002 C 
ATOM      4  C   UNL d   1      15.942  -1.508   5.748  0.00  0.00     0.001 C 
ATOM      5  C   UNL d   1      16.451  -2.804   5.088  0.00  0.00    -0.014 C 
ATOM      6  C   UNL d   1      13.291  -2.986   8.250  0.00  0.00    -0.036 C 
ATOM      7  C   UNL d   1      12.817  -1.604   8.804  0.00  0.00     0.001 C 
ATOM      8  C   UNL d   1      15.278  -4.093   6.936  0.00  0.00     0.007 C 
ATOM      9  C   UNL d   1      16.603  -3.868   6.184  0.00  0.00     0.012 C 
ATOM     10  C   UNL d   1      14.072  -0.350   6.997  0.00  0.00     0.006 C 
ATOM     11  C   UNL d   1      16.136  -0.455   4.659  0.00  0.00     0.008 C 
ATOM     12  C   UNL d   1      17.779  -2.285   4.506  0.00  0.00     0.126 C 
ATOM     13  C   UNL d   1      12.743  -0.515   7.725  0.00  0.00     0.006 C 
ATOM     14  C   UNL d   1      17.421  -0.898   3.937  0.00  0.00     0.033 C 
ATOM     15  C   UNL d   1      13.500  -3.959   9.455  0.00  0.00     0.017 C 
ATOM     16  C   UNL d   1      15.544  -3.351   3.956  0.00  0.00     0.018 C 
ATOM     17  C   UNL d   1      12.224  -3.605   7.310  0.00  0.00     0.016 C 
ATOM     18  C   UNL d   1      11.475  -1.698   9.546  0.00  0.00     0.083 C 
ATOM     19  C   UNL d   1      12.708  -3.629  10.721  0.00  0.00     0.079 C 
ATOM     20  C   UNL d   1      11.411  -2.922  10.429  0.00  0.00     0.127 C 
ENDROOT
BRANCH  12  21
ATOM     21  O   UNL d   1      18.318  -3.137   3.513  0.00  0.00    -0.395 OA
ATOM     22  H   UNL d   1      18.247  -4.057   3.814  0.00  0.00     0.210 HD
ENDBRANCH  12  21
TORSDOF 1
ENDMDL
MODEL 5
REMARK VINA RESULT:      -5.9     12.181     14.427
REMARK  1 active torsions:
REMARK  status: ('A' for Active; 'I' for Inactive)
REMARK    1  A    between atoms: O_1  and  C_13 
ROOT
ATOM      1  O   UNL d   1      19.906   2.391   2.309  0.00  0.00    -0.298 OA
ATOM      2  C   UNL d   1      15.180  -1.384   4.419  0.00  0.00    -0.005 C 
ATOM      3  C   UNL d   1      16.598  -1.764   3.890  0.00  0.00    -0.002 C 
ATOM      4  C   UNL d   1      14.338  -2.660   4.522  0.00  0.00     0.001 C 
ATOM      5  C   UNL d   1      14.950  -3.705   5.475  0.00  0.00    -0.014 C 
ATOM      6  C   UNL d   1      17.525  -0.506   3.698  0.00  0.00    -0.036 C 
ATOM      7  C   UNL d   1      16.781   0.528   2.794  0.00  0.00     0.001 C 
ATOM      8  C   UNL d   1      17.242  -2.908   4.723  0.00  0.00     0.007 C 
ATOM      9  C   UNL d   1      16.314  -4.123   4.909  0.00  0.00     0.012 C 
ATOM     10  C   UNL d   1      14.514  -0.352   3.500  0.00  0.00     0.006 C 
ATOM     11  C   UNL d   1      12.887  -2.561   4.987  0.00  0.00     0.008 C 
ATOM     12  C   UNL d   1      13.859  -4.789   5.393  0.00  0.00     0.126 C 
ATOM     13  C   UNL d   1      15.382   0.887   3.312  0.00  0.00     0.006 C 
ATOM     14  C   UNL d   1      12.539  -3.994   5.428  0.00  0.00     0.033 C 
ATOM     15  C   UNL d   1      18.849  -0.928   2.985  0.00  0.00     0.017 C 
ATOM     16  C   UNL d   1      15.121  -3.223   6.938  0.00  0.00     0.018 C 
ATOM     17  C   UNL d   1      17.894   0.119   5.070  0.00  0.00     0.016 C 
ATOM     18  C   UNL d   1      17.600   1.808   2.568  0.00  0.00     0.083 C 
ATOM     19  C   UNL d   1      19.411   0.075   1.977  0.00  0.00     0.079 C 
ATOM     20  C   UNL d   1      19.057   1.499   2.314  0.00  0.00     0.127 C 
ENDROOT
BRANCH  12  21
ATOM     21  O   UNL d   1      13.934  -5.729   6.447  0.00  0.00    -0.395 OA
ATOM     22  H   UNL d   1      13.038  -5.904   6.778  0.00  0.00     0.210 HD
ENDBRANCH  12  21
TORSDOF 1
ENDMDL
MODEL 6
REMARK VINA RESULT:      -5.8     12.234     14.742
REMARK  1 active torsions:
REMARK  status: ('A' for Active; 'I' for Inactive)
REMARK    1  A    between atoms: O_1  and  C_13 
ROOT
ATOM      1  O   UNL d   1      19.863   0.552   3.979  0.00  0.00    -0.298 OA
ATOM      2  C   UNL d   1      14.679  -3.022   5.158  0.00  0.00    -0.005 C 
ATOM      3  C   UNL d   1      15.508  -2.872   3.844  0.00  0.00    -0.002 C 
ATOM      4  C   UNL d   1      13.379  -3.765   4.833  0.00  0.00     0.001 C 
ATOM      5  C   UNL d   1      13.623  -5.169   4.247  0.00  0.00    -0.014 C 
ATOM      6  C   UNL d   1      16.844  -2.069   4.065  0.00  0.00    -0.036 C 
ATOM      7  C   UNL d   1      16.500  -0.704   4.742  0.00  0.00     0.001 C 
ATOM      8  C   UNL d   1      15.696  -4.233   3.116  0.00  0.00     0.007 C 
ATOM      9  C   UNL d   1      14.379  -5.006   2.921  0.00  0.00     0.012 C 
ATOM     10  C   UNL d   1      14.393  -1.650   5.781  0.00  0.00     0.006 C 
ATOM     11  C   UNL d   1      12.364  -4.016   5.947  0.00  0.00     0.008 C 
ATOM     12  C   UNL d   1      12.163  -5.638   4.103  0.00  0.00     0.126 C 
ATOM     13  C   UNL d   1      15.673  -0.858   6.025  0.00  0.00     0.006 C 
ATOM     14  C   UNL d   1      11.485  -5.154   5.400  0.00  0.00     0.033 C 
ATOM     15  C   UNL d   1      17.525  -1.784   2.688  0.00  0.00     0.017 C 
ATOM     16  C   UNL d   1      14.408  -6.129   5.177  0.00  0.00     0.018 C 
ATOM     17  C   UNL d   1      17.838  -2.886   4.934  0.00  0.00     0.016 C 
ATOM     18  C   UNL d   1      17.749   0.144   5.023  0.00  0.00     0.083 C 
ATOM     19  C   UNL d   1      18.209  -0.423   2.554  0.00  0.00     0.079 C 
ATOM     20  C   UNL d   1      18.722   0.104   3.868  0.00  0.00     0.127 C 
ENDROOT
BRANCH  12  21
ATOM     21  O   UNL d   1      12.046  -7.039   3.940  0.00  0.00    -0.395 OA
ATOM     22  H   UNL d   1      12.334  -7.476   4.759  0.00  0.00     0.210 HD
ENDBRANCH  12  21
TORSDOF 1
ENDMDL
MODEL 7
REMARK VINA RESULT:      -5.7      2.059      3.064
REMARK  1 active torsions:
REMARK  status: ('A' for Active; 'I' for Inactive)
REMARK    1  A    between atoms: O_1  and  C_13 
ROOT
ATOM      1  O   UNL d   1       0.239   8.355   7.390  0.00  0.00    -0.298 OA
ATOM      2  C   UNL d   1       6.016   6.147   9.061  0.00  0.00    -0.005 C 
ATOM      3  C   UNL d   1       4.880   6.739   9.952  0.00  0.00    -0.002 C 
ATOM      4  C   UNL d   1       7.291   6.040   9.903  0.00  0.00     0.001 C 
ATOM      5  C   UNL d   1       7.118   5.136  11.138  0.00  0.00    -0.014 C 
ATOM      6  C   UNL d   1       3.536   6.939   9.157  0.00  0.00    -0.036 C 
ATOM      7  C   UNL d   1       3.833   7.790   7.881  0.00  0.00     0.001 C 
ATOM      8  C   UNL d   1       4.720   5.958  11.286  0.00  0.00     0.007 C 
ATOM      9  C   UNL d   1       6.048   5.763  12.041  0.00  0.00     0.012 C 
ATOM     10  C   UNL d   1       6.242   7.016   7.817  0.00  0.00     0.006 C 
ATOM     11  C   UNL d   1       8.571   5.516   9.255  0.00  0.00     0.008 C 
ATOM     12  C   UNL d   1       8.551   5.199  11.699  0.00  0.00     0.126 C 
ATOM     13  C   UNL d   1       4.960   7.209   7.017  0.00  0.00     0.006 C 
ATOM     14  C   UNL d   1       9.447   5.094  10.448  0.00  0.00     0.033 C 
ATOM     15  C   UNL d   1       2.507   7.713  10.042  0.00  0.00     0.017 C 
ATOM     16  C   UNL d   1       6.730   3.669  10.816  0.00  0.00     0.018 C 
ATOM     17  C   UNL d   1       2.912   5.570   8.779  0.00  0.00     0.016 C 
ATOM     18  C   UNL d   1       2.579   8.019   7.022  0.00  0.00     0.083 C 
ATOM     19  C   UNL d   1       1.621   8.720   9.307  0.00  0.00     0.079 C 
ATOM     20  C   UNL d   1       1.372   8.337   7.872  0.00  0.00     0.127 C 
ENDROOT
BRANCH  12  21
ATOM     21  O   UNL d   1       8.827   4.169  12.630  0.00  0.00    -0.395 OA
ATOM     22  H   UNL d   1       8.469   3.333  12.290  0.00  0.00     0.210 HD
ENDBRANCH  12  21
TORSDOF 1
ENDMDL
MODEL 8
REMARK VINA RESULT:      -5.5      3.351      7.528
REMARK  1 active torsions:
REMARK  status: ('A' for Active; 'I' for Inactive)
REMARK    1  A    between atoms: O_1  and  C_13 
ROOT
ATOM      1  O   UNL d   1      12.040  -2.283   7.540  0.00  0.00    -0.298 OA
ATOM      2  C   UNL d   1       9.170   3.151   9.348  0.00  0.00    -0.005 C 
ATOM      3  C   UNL d   1      10.292   2.923   8.288  0.00  0.00    -0.002 C 
ATOM      4  C   UNL d   1       9.042   4.656   9.607  0.00  0.00     0.001 C 
ATOM      5  C   UNL d   1       8.685   5.453   8.338  0.00  0.00    -0.014 C 
ATOM      6  C   UNL d   1      10.537   1.395   7.994  0.00  0.00    -0.036 C 
ATOM      7  C   UNL d   1      10.802   0.662   9.347  0.00  0.00     0.001 C 
ATOM      8  C   UNL d   1      10.076   3.790   7.016  0.00  0.00     0.007 C 
ATOM      9  C   UNL d   1       9.827   5.277   7.328  0.00  0.00     0.012 C 
ATOM     10  C   UNL d   1       9.480   2.389  10.643  0.00  0.00     0.006 C 
ATOM     11  C   UNL d   1       8.029   5.153  10.636  0.00  0.00     0.008 C 
ATOM     12  C   UNL d   1       8.577   6.863   8.949  0.00  0.00     0.126 C 
ATOM     13  C   UNL d   1       9.702   0.903  10.389  0.00  0.00     0.006 C 
ATOM     14  C   UNL d   1       7.834   6.638  10.280  0.00  0.00     0.033 C 
ATOM     15  C   UNL d   1      11.796   1.227   7.083  0.00  0.00     0.017 C 
ATOM     16  C   UNL d   1       7.342   5.048   7.678  0.00  0.00     0.018 C 
ATOM     17  C   UNL d   1       9.322   0.777   7.254  0.00  0.00     0.016 C 
ATOM     18  C   UNL d   1      11.029  -0.846   9.164  0.00  0.00     0.083 C 
ATOM     19  C   UNL d   1      12.679   0.017   7.386  0.00  0.00     0.079 C 
ATOM     20  C   UNL d   1      11.906  -1.136   7.970  0.00  0.00     0.127 C 
ENDROOT
BRANCH  12  21
ATOM     21  O   UNL d   1       7.890   7.776   8.113  0.00  0.00    -0.395 OA
ATOM     22  H   UNL d   1       6.983   7.884   8.442  0.00  0.00     0.210 HD
ENDBRANCH  12  21
TORSDOF 1
ENDMDL
MODEL 9
REMARK VINA RESULT:      -5.4      1.518      3.512
REMARK  1 active torsions:
REMARK  status: ('A' for Active; 'I' for Inactive)
REMARK    1  A    between atoms: O_1  and  C_13 
ROOT
ATOM      1  O   UNL d   1      -0.913   7.333  11.112  0.00  0.00    -0.298 OA
ATOM      2  C   UNL d   1       5.413   6.361  10.847  0.00  0.00    -0.005 C 
ATOM      3  C   UNL d   1       4.292   5.897   9.866  0.00  0.00    -0.002 C 
ATOM      4  C   UNL d   1       6.710   5.627  10.489  0.00  0.00     0.001 C 
ATOM      5  C   UNL d   1       7.177   5.907   9.047  0.00  0.00    -0.014 C 
ATOM      6  C   UNL d   1       2.900   6.558  10.189  0.00  0.00    -0.036 C 
ATOM      7  C   UNL d   1       2.560   6.295  11.691  0.00  0.00     0.001 C 
ATOM      8  C   UNL d   1       4.729   6.027   8.380  0.00  0.00     0.007 C 
ATOM      9  C   UNL d   1       6.098   5.385   8.088  0.00  0.00     0.012 C 
ATOM     10  C   UNL d   1       5.009   6.094  12.302  0.00  0.00     0.006 C 
ATOM     11  C   UNL d   1       7.964   5.878  11.323  0.00  0.00     0.008 C 
ATOM     12  C   UNL d   1       8.486   5.097   9.045  0.00  0.00     0.126 C 
ATOM     13  C   UNL d   1       3.672   6.741  12.649  0.00  0.00     0.006 C 
ATOM     14  C   UNL d   1       9.115   5.399  10.420  0.00  0.00     0.033 C 
ATOM     15  C   UNL d   1       1.787   5.907   9.306  0.00  0.00     0.017 C 
ATOM     16  C   UNL d   1       7.466   7.399   8.740  0.00  0.00     0.018 C 
ATOM     17  C   UNL d   1       2.930   8.078   9.884  0.00  0.00     0.016 C 
ATOM     18  C   UNL d   1       1.223   6.926  12.110  0.00  0.00     0.083 C 
ATOM     19  C   UNL d   1       0.431   5.709   9.984  0.00  0.00     0.079 C 
ATOM     20  C   UNL d   1       0.160   6.732  11.055  0.00  0.00     0.127 C 
ENDROOT
BRANCH  12  21
ATOM     21  O   UNL d   1       9.353   5.449   7.984  0.00  0.00    -0.395 OA
ATOM     22  H   UNL d   1       9.232   4.819   7.255  0.00  0.00     0.210 HD
ENDBRANCH  12  21
TORSDOF 1
ENDMDL
