MODEL 1
REMARK VINA RESULT:      -7.7      0.000      0.000
REMARK  6 active torsions:
REMARK  status: ('A' for Active; 'I' for Inactive)
REMARK    1  A    between atoms: N_8  and  C_18 
REMARK    2  A    between atoms: N_9  and  N_11 
REMARK       I    between atoms: N_9  and  C_22 
REMARK    3  A    between atoms: N_10  and  C_25 
REMARK       I    between atoms: N_11  and  C_27 
REMARK    4  A    between atoms: N_12  and  C_26 
REMARK       I    between atoms: N_12  and  C_27 
REMARK    5  A    between atoms: C_19  and  C_22 
REMARK    6  A    between atoms: C_28  and  C_33 
ROOT
ATOM      1  O   UNL d   1      11.892   4.739   9.439  0.00  0.00    -0.267 OA
ATOM      2  N   UNL d   1      10.376   3.222   8.549  0.00  0.00    -0.263 N 
ATOM      3  C   UNL d   1      10.806   4.476   8.932  0.00  0.00     0.260 C 
ATOM      4  H   UNL d   1       9.472   3.030   8.129  0.00  0.00     0.190 HD
ENDROOT
BRANCH   2   5
ATOM      5  N   UNL d   1      11.211   2.148   8.736  0.00  0.00    -0.248 N 
ATOM      6  C   UNL d   1      11.440   1.272   7.675  0.00  0.00     0.339 C 
ATOM      7  O   UNL d   1      10.928   1.409   6.566  0.00  0.00    -0.245 OA
ATOM      8  N   UNL d   1      12.314   0.255   8.069  0.00  0.00    -0.308 N 
ATOM      9  H   UNL d   1      12.648   0.291   9.029  0.00  0.00     0.170 HD
ATOM     10  H   UNL d   1      11.634   2.044   9.651  0.00  0.00     0.192 HD
BRANCH   8  11
ATOM     11  C   UNL d   1      12.796  -0.825   7.295  0.00  0.00     0.037 A 
ATOM     12  C   UNL d   1      14.114  -0.824   6.838  0.00  0.00     0.045 A 
ATOM     13  C   UNL d   1      14.588  -1.890   6.075  0.00  0.00     0.050 A 
ATOM     14  C   UNL d   1      13.745  -2.958   5.768  0.00  0.00     0.016 A 
ATOM     15  C   UNL d   1      12.428  -2.961   6.226  0.00  0.00     0.003 A 
ATOM     16  C   UNL d   1      11.953  -1.895   6.990  0.00  0.00     0.029 A 
BRANCH  13  17
ATOM     17  C   UNL d   1      15.997  -1.888   5.585  0.00  0.00     0.417 C 
ATOM     18  F   UNL d   1      16.104  -1.939   4.224  0.00  0.00    -0.166 F 
ATOM     19  F   UNL d   1      16.736  -2.943   6.040  0.00  0.00    -0.166 F 
ATOM     20  F   UNL d   1      16.684  -0.771   5.965  0.00  0.00    -0.166 F 
ENDBRANCH  13  17
ENDBRANCH   8  11
ENDBRANCH   2   5
BRANCH   3  21
ATOM     21  C   UNL d   1       9.777   5.510   8.656  0.00  0.00     0.078 C 
ATOM     22  C   UNL d   1       8.957   5.926   9.632  0.00  0.00    -0.071 C 
ATOM     23  C   UNL d   1       7.894   6.968   9.420  0.00  0.00     0.054 C 
ATOM     24  C   UNL d   1       9.002   5.377  11.029  0.00  0.00     0.054 C 
ATOM     25  C   UNL d   1       6.527   6.437   9.853  0.00  0.00     0.127 C 
ATOM     26  N   UNL d   1       6.589   5.880  11.216  0.00  0.00    -0.380 N 
ATOM     27  C   UNL d   1       7.624   4.863  11.456  0.00  0.00     0.127 C 
BRANCH  26  28
ATOM     28  C   UNL d   1       5.399   5.840  11.951  0.00  0.00     0.030 A 
ATOM     29  C   UNL d   1       4.480   6.884  11.847  0.00  0.00     0.032 A 
ATOM     30  C   UNL d   1       3.294   6.844  12.579  0.00  0.00     0.038 A 
ATOM     31  C   UNL d   1       3.026   5.759  13.415  0.00  0.00     0.103 A 
ATOM     32  C   UNL d   1       3.945   4.716  13.519  0.00  0.00     0.038 A 
ATOM     33  C   UNL d   1       5.132   4.756  12.786  0.00  0.00     0.032 A 
BRANCH  31  34
ATOM     34  N   UNL d   1       1.819   5.718  14.161  0.00  0.00    -0.116 N 
ATOM     35  O   UNL d   1       1.595   6.618  15.006  0.00  0.00    -0.532 OA
ATOM     36  O   UNL d   1       1.008   4.782  13.956  0.00  0.00    -0.532 OA
ENDBRANCH  31  34
ENDBRANCH  26  28
ENDBRANCH   3  21
TORSDOF 6
ENDMDL
MODEL 2
REMARK VINA RESULT:      -7.5      2.636      3.032
REMARK  6 active torsions:
REMARK  status: ('A' for Active; 'I' for Inactive)
REMARK    1  A    between atoms: N_8  and  C_18 
REMARK    2  A    between atoms: N_9  and  N_11 
REMARK       I    between atoms: N_9  and  C_22 
REMARK    3  A    between atoms: N_10  and  C_25 
REMARK       I    between atoms: N_11  and  C_27 
REMARK    4  A    between atoms: N_12  and  C_26 
REMARK       I    between atoms: N_12  and  C_27 
REMARK    5  A    between atoms: C_19  and  C_22 
REMARK    6  A    between atoms: C_28  and  C_33 
ROOT
ATOM      1  O   UNL d   1      11.891   4.675   9.421  0.00  0.00    -0.267 OA
ATOM      2  N   UNL d   1      10.439   3.369   8.164  0.00  0.00    -0.263 N 
ATOM      3  C   UNL d   1      10.846   4.528   8.796  0.00  0.00     0.260 C 
ATOM      4  H   UNL d   1       9.570   3.273   7.650  0.00  0.00     0.190 HD
ENDROOT
BRANCH   2   5
ATOM      5  N   UNL d   1      11.251   2.264   8.219  0.00  0.00    -0.248 N 
ATOM      6  C   UNL d   1      10.785   1.107   8.844  0.00  0.00     0.339 C 
ATOM      7  O   UNL d   1       9.671   1.021   9.356  0.00  0.00    -0.245 OA
ATOM      8  N   UNL d   1      11.757   0.105   8.791  0.00  0.00    -0.308 N 
ATOM      9  H   UNL d   1      12.630   0.343   8.326  0.00  0.00     0.170 HD
ATOM     10  H   UNL d   1      12.166   2.339   7.790  0.00  0.00     0.192 HD
BRANCH   8  11
ATOM     11  C   UNL d   1      11.679  -1.210   9.306  0.00  0.00     0.037 A 
ATOM     12  C   UNL d   1      12.771  -1.765   9.972  0.00  0.00     0.045 A 
ATOM     13  C   UNL d   1      12.693  -3.062  10.480  0.00  0.00     0.050 A 
ATOM     14  C   UNL d   1      11.523  -3.804  10.321  0.00  0.00     0.016 A 
ATOM     15  C   UNL d   1      10.430  -3.249   9.655  0.00  0.00     0.003 A 
ATOM     16  C   UNL d   1      10.508  -1.952   9.148  0.00  0.00     0.029 A 
BRANCH  13  17
ATOM     17  C   UNL d   1      13.861  -3.656  11.191  0.00  0.00     0.417 C 
ATOM     18  F   UNL d   1      13.703  -3.719  12.547  0.00  0.00    -0.166 F 
ATOM     19  F   UNL d   1      15.026  -2.966  11.002  0.00  0.00    -0.166 F 
ATOM     20  F   UNL d   1      14.126  -4.934  10.793  0.00  0.00    -0.166 F 
ENDBRANCH  13  17
ENDBRANCH   8  11
ENDBRANCH   2   5
BRANCH   3  21
ATOM     21  C   UNL d   1       9.848   5.614   8.631  0.00  0.00     0.078 C 
ATOM     22  C   UNL d   1       9.040   5.950   9.646  0.00  0.00    -0.071 C 
ATOM     23  C   UNL d   1       8.008   7.039   9.547  0.00  0.00     0.054 C 
ATOM     24  C   UNL d   1       9.068   5.258  10.979  0.00  0.00     0.054 C 
ATOM     25  C   UNL d   1       6.625   6.506   9.925  0.00  0.00     0.127 C 
ATOM     26  N   UNL d   1       6.671   5.809  11.223  0.00  0.00    -0.380 N 
ATOM     27  C   UNL d   1       7.676   4.742  11.354  0.00  0.00     0.127 C 
BRANCH  26  28
ATOM     28  C   UNL d   1       5.480   5.726  11.953  0.00  0.00     0.030 A 
ATOM     29  C   UNL d   1       4.552   6.766  11.892  0.00  0.00     0.032 A 
ATOM     30  C   UNL d   1       3.364   6.685  12.618  0.00  0.00     0.038 A 
ATOM     31  C   UNL d   1       3.105   5.563  13.407  0.00  0.00     0.103 A 
ATOM     32  C   UNL d   1       4.033   4.524  13.468  0.00  0.00     0.038 A 
ATOM     33  C   UNL d   1       5.220   4.606  12.741  0.00  0.00     0.032 A 
BRANCH  31  34
ATOM     34  N   UNL d   1       1.896   5.480  14.148  0.00  0.00    -0.116 N 
ATOM     35  O   UNL d   1       1.724   4.510  14.924  0.00  0.00    -0.532 OA
ATOM     36  O   UNL d   1       1.032   6.379  14.005  0.00  0.00    -0.532 OA
ENDBRANCH  31  34
ENDBRANCH  26  28
ENDBRANCH   3  21
TORSDOF 6
ENDMDL
MODEL 3
REMARK VINA RESULT:      -7.4     11.920     15.741
REMARK  6 active torsions:
REMARK  status: ('A' for Active; 'I' for Inactive)
REMARK    1  A    between atoms: N_8  and  C_18 
REMARK    2  A    between atoms: N_9  and  N_11 
REMARK       I    between atoms: N_9  and  C_22 
REMARK    3  A    between atoms: N_10  and  C_25 
REMARK       I    between atoms: N_11  and  C_27 
REMARK    4  A    between atoms: N_12  and  C_26 
REMARK       I    between atoms: N_12  and  C_27 
REMARK    5  A    between atoms: C_19  and  C_22 
REMARK    6  A    between atoms: C_28  and  C_33 
ROOT
ATOM      1  O   UNL d   1      18.451   4.285  -1.977  0.00  0.00    -0.267 OA
ATOM      2  N   UNL d   1      18.623   5.452   0.024  0.00  0.00    -0.263 N 
ATOM      3  C   UNL d   1      18.894   4.409  -0.839  0.00  0.00     0.260 C 
ATOM      4  H   UNL d   1      19.004   5.533   0.961  0.00  0.00     0.190 HD
ENDROOT
BRANCH   2   5
ATOM      5  N   UNL d   1      17.789   6.459  -0.393  0.00  0.00    -0.248 N 
ATOM      6  C   UNL d   1      18.298   7.749  -0.537  0.00  0.00     0.339 C 
ATOM      7  O   UNL d   1      19.470   8.040  -0.308  0.00  0.00    -0.245 OA
ATOM      8  N   UNL d   1      17.293   8.619  -0.969  0.00  0.00    -0.308 N 
ATOM      9  H   UNL d   1      16.372   8.213  -1.114  0.00  0.00     0.170 HD
ATOM     10  H   UNL d   1      16.825   6.212  -0.587  0.00  0.00     0.192 HD
BRANCH   8  11
ATOM     11  C   UNL d   1      17.398  10.005  -1.234  0.00  0.00     0.037 A 
ATOM     12  C   UNL d   1      17.285  10.925  -0.193  0.00  0.00     0.045 A 
ATOM     13  C   UNL d   1      17.388  12.291  -0.454  0.00  0.00     0.050 A 
ATOM     14  C   UNL d   1      17.604  12.737  -1.758  0.00  0.00     0.016 A 
ATOM     15  C   UNL d   1      17.718  11.817  -2.800  0.00  0.00     0.003 A 
ATOM     16  C   UNL d   1      17.615  10.451  -2.538  0.00  0.00     0.029 A 
BRANCH  13  17
ATOM     17  C   UNL d   1      17.266  13.275   0.660  0.00  0.00     0.417 C 
ATOM     18  F   UNL d   1      17.215  14.574   0.240  0.00  0.00    -0.166 F 
ATOM     19  F   UNL d   1      18.304  13.228   1.547  0.00  0.00    -0.166 F 
ATOM     20  F   UNL d   1      16.139  13.087   1.407  0.00  0.00    -0.166 F 
ENDBRANCH  13  17
ENDBRANCH   8  11
ENDBRANCH   2   5
BRANCH   3  21
ATOM     21  C   UNL d   1      19.811   3.418  -0.222  0.00  0.00     0.078 C 
ATOM     22  C   UNL d   1      19.340   2.241   0.215  0.00  0.00    -0.071 C 
ATOM     23  C   UNL d   1      20.212   1.194   0.849  0.00  0.00     0.054 C 
ATOM     24  C   UNL d   1      17.889   1.858   0.135  0.00  0.00     0.054 C 
ATOM     25  C   UNL d   1      19.665   0.798   2.222  0.00  0.00     0.127 C 
ATOM     26  N   UNL d   1      18.237   0.448   2.134  0.00  0.00    -0.380 N 
ATOM     27  C   UNL d   1      17.358   1.449   1.511  0.00  0.00     0.127 C 
BRANCH  26  28
ATOM     28  C   UNL d   1      17.721  -0.406   3.115  0.00  0.00     0.030 A 
ATOM     29  C   UNL d   1      18.124  -1.741   3.160  0.00  0.00     0.032 A 
ATOM     30  C   UNL d   1      17.611  -2.592   4.138  0.00  0.00     0.038 A 
ATOM     31  C   UNL d   1      16.694  -2.109   5.072  0.00  0.00     0.103 A 
ATOM     32  C   UNL d   1      16.291  -0.775   5.028  0.00  0.00     0.038 A 
ATOM     33  C   UNL d   1      16.805   0.077   4.050  0.00  0.00     0.032 A 
BRANCH  31  34
ATOM     34  N   UNL d   1      16.171  -2.975   6.068  0.00  0.00    -0.116 N 
ATOM     35  O   UNL d   1      16.769  -4.050   6.315  0.00  0.00    -0.532 OA
ATOM     36  O   UNL d   1      15.122  -2.643   6.673  0.00  0.00    -0.532 OA
ENDBRANCH  31  34
ENDBRANCH  26  28
ENDBRANCH   3  21
TORSDOF 6
ENDMDL
MODEL 4
REMARK VINA RESULT:      -7.2     14.385     17.810
REMARK  6 active torsions:
REMARK  status: ('A' for Active; 'I' for Inactive)
REMARK    1  A    between atoms: N_8  and  C_18 
REMARK    2  A    between atoms: N_9  and  N_11 
REMARK       I    between atoms: N_9  and  C_22 
REMARK    3  A    between atoms: N_10  and  C_25 
REMARK       I    between atoms: N_11  and  C_27 
REMARK    4  A    between atoms: N_12  and  C_26 
REMARK       I    between atoms: N_12  and  C_27 
REMARK    5  A    between atoms: C_19  and  C_22 
REMARK    6  A    between atoms: C_28  and  C_33 
ROOT
ATOM      1  O   UNL d   1      17.279   8.756  -2.182  0.00  0.00    -0.267 OA
ATOM      2  N   UNL d   1      18.505   9.478  -0.347  0.00  0.00    -0.263 N 
ATOM      3  C   UNL d   1      18.247   8.667  -1.434  0.00  0.00     0.260 C 
ATOM      4  H   UNL d   1      19.316   9.386   0.256  0.00  0.00     0.190 HD
ENDROOT
BRANCH   2   5
ATOM      5  N   UNL d   1      17.623  10.486  -0.047  0.00  0.00    -0.248 N 
ATOM      6  C   UNL d   1      17.716  11.699  -0.729  0.00  0.00     0.339 C 
ATOM      7  O   UNL d   1      18.557  11.919  -1.598  0.00  0.00    -0.245 OA
ATOM      8  N   UNL d   1      16.732  12.583  -0.279  0.00  0.00    -0.308 N 
ATOM      9  H   UNL d   1      16.112  12.239   0.450  0.00  0.00     0.170 HD
ATOM     10  H   UNL d   1      16.928  10.296   0.666  0.00  0.00     0.192 HD
BRANCH   8  11
ATOM     11  C   UNL d   1      16.488  13.907  -0.713  0.00  0.00     0.037 A 
ATOM     12  C   UNL d   1      16.561  14.963   0.194  0.00  0.00     0.045 A 
ATOM     13  C   UNL d   1      16.321  16.268  -0.235  0.00  0.00     0.050 A 
ATOM     14  C   UNL d   1      16.008  16.517  -1.571  0.00  0.00     0.016 A 
ATOM     15  C   UNL d   1      15.936  15.461  -2.478  0.00  0.00     0.003 A 
ATOM     16  C   UNL d   1      16.176  14.155  -2.049  0.00  0.00     0.029 A 
BRANCH  13  17
ATOM     17  C   UNL d   1      16.399  17.398   0.736  0.00  0.00     0.417 C 
ATOM     18  F   UNL d   1      17.523  18.162   0.599  0.00  0.00    -0.166 F 
ATOM     19  F   UNL d   1      16.398  16.998   2.043  0.00  0.00    -0.166 F 
ATOM     20  F   UNL d   1      15.350  18.265   0.619  0.00  0.00    -0.166 F 
ENDBRANCH  13  17
ENDBRANCH   8  11
ENDBRANCH   2   5
BRANCH   3  21
ATOM     21  C   UNL d   1      19.304   7.639  -1.606  0.00  0.00     0.078 C 
ATOM     22  C   UNL d   1      19.001   6.336  -1.519  0.00  0.00    -0.071 C 
ATOM     23  C   UNL d   1      20.021   5.244  -1.683  0.00  0.00     0.054 C 
ATOM     24  C   UNL d   1      17.615   5.835  -1.227  0.00  0.00     0.054 C 
ATOM     25  C   UNL d   1      20.011   4.312  -0.470  0.00  0.00     0.127 C 
ATOM     26  N   UNL d   1      18.643   3.847  -0.180  0.00  0.00    -0.380 N 
ATOM     27  C   UNL d   1      17.620   4.892  -0.022  0.00  0.00     0.127 C 
BRANCH  26  28
ATOM     28  C   UNL d   1      18.507   2.639   0.512  0.00  0.00     0.030 A 
ATOM     29  C   UNL d   1      17.354   1.869   0.352  0.00  0.00     0.032 A 
ATOM     30  C   UNL d   1      17.218   0.664   1.041  0.00  0.00     0.038 A 
ATOM     31  C   UNL d   1      18.235   0.229   1.892  0.00  0.00     0.103 A 
ATOM     32  C   UNL d   1      19.387   0.998   2.052  0.00  0.00     0.038 A 
ATOM     33  C   UNL d   1      19.523   2.203   1.362  0.00  0.00     0.032 A 
BRANCH  31  34
ATOM     34  N   UNL d   1      18.097  -0.997   2.594  0.00  0.00    -0.116 N 
ATOM     35  O   UNL d   1      18.477  -1.060   3.788  0.00  0.00    -0.532 OA
ATOM     36  O   UNL d   1      17.599  -1.985   2.002  0.00  0.00    -0.532 OA
ENDBRANCH  31  34
ENDBRANCH  26  28
ENDBRANCH   3  21
TORSDOF 6
ENDMDL
MODEL 5
REMARK VINA RESULT:      -7.1      8.334     13.450
REMARK  6 active torsions:
REMARK  status: ('A' for Active; 'I' for Inactive)
REMARK    1  A    between atoms: N_8  and  C_18 
REMARK    2  A    between atoms: N_9  and  N_11 
REMARK       I    between atoms: N_9  and  C_22 
REMARK    3  A    between atoms: N_10  and  C_25 
REMARK       I    between atoms: N_11  and  C_27 
REMARK    4  A    between atoms: N_12  and  C_26 
REMARK       I    between atoms: N_12  and  C_27 
REMARK    5  A    between atoms: C_19  and  C_22 
REMARK    6  A    between atoms: C_28  and  C_33 
ROOT
ATOM      1  O   UNL d   1       3.706   1.595  13.309  0.00  0.00    -0.267 OA
ATOM      2  N   UNL d   1       4.267   3.038  15.040  0.00  0.00    -0.263 N 
ATOM      3  C   UNL d   1       4.540   2.157  14.013  0.00  0.00     0.260 C 
ATOM      4  H   UNL d   1       4.976   3.493  15.607  0.00  0.00     0.190 HD
ENDROOT
BRANCH   2   5
ATOM      5  N   UNL d   1       2.959   3.337  15.328  0.00  0.00    -0.248 N 
ATOM      6  C   UNL d   1       2.431   4.559  14.911  0.00  0.00     0.339 C 
ATOM      7  O   UNL d   1       3.082   5.396  14.289  0.00  0.00    -0.245 OA
ATOM      8  N   UNL d   1       1.094   4.665  15.300  0.00  0.00    -0.308 N 
ATOM      9  H   UNL d   1       0.705   3.876  15.811  0.00  0.00     0.170 HD
ATOM     10  H   UNL d   1       2.426   2.640  15.836  0.00  0.00     0.192 HD
BRANCH   8  11
ATOM     11  C   UNL d   1       0.205   5.741  15.072  0.00  0.00     0.037 A 
ATOM     12  C   UNL d   1       0.157   6.809  15.967  0.00  0.00     0.045 A 
ATOM     13  C   UNL d   1      -0.719   7.870  15.741  0.00  0.00     0.050 A 
ATOM     14  C   UNL d   1      -1.549   7.863  14.620  0.00  0.00     0.016 A 
ATOM     15  C   UNL d   1      -1.501   6.795  13.724  0.00  0.00     0.003 A 
ATOM     16  C   UNL d   1      -0.625   5.734  13.950  0.00  0.00     0.029 A 
BRANCH  13  17
ATOM     17  C   UNL d   1      -0.770   9.012  16.699  0.00  0.00     0.417 C 
ATOM     18  F   UNL d   1      -2.014   9.238  17.216  0.00  0.00    -0.166 F 
ATOM     19  F   UNL d   1      -0.392  10.205  16.149  0.00  0.00    -0.166 F 
ATOM     20  F   UNL d   1       0.048   8.832  17.776  0.00  0.00    -0.166 F 
ENDBRANCH  13  17
ENDBRANCH   8  11
ENDBRANCH   2   5
BRANCH   3  21
ATOM     21  C   UNL d   1       6.001   1.956  13.844  0.00  0.00     0.078 C 
ATOM     22  C   UNL d   1       6.765   2.936  13.341  0.00  0.00    -0.071 C 
ATOM     23  C   UNL d   1       8.249   2.799  13.144  0.00  0.00     0.054 C 
ATOM     24  C   UNL d   1       6.213   4.263  12.904  0.00  0.00     0.054 C 
ATOM     25  C   UNL d   1       8.630   3.108  11.695  0.00  0.00     0.127 C 
ATOM     26  N   UNL d   1       8.063   4.400  11.271  0.00  0.00    -0.380 N 
ATOM     27  C   UNL d   1       6.614   4.568  11.458  0.00  0.00     0.127 C 
BRANCH  26  28
ATOM     28  C   UNL d   1       8.706   5.073  10.226  0.00  0.00     0.030 A 
ATOM     29  C   UNL d   1       8.179   6.270   9.738  0.00  0.00     0.032 A 
ATOM     30  C   UNL d   1       8.819   6.941   8.697  0.00  0.00     0.038 A 
ATOM     31  C   UNL d   1       9.987   6.416   8.142  0.00  0.00     0.103 A 
ATOM     32  C   UNL d   1      10.513   5.220   8.629  0.00  0.00     0.038 A 
ATOM     33  C   UNL d   1       9.873   4.549   9.671  0.00  0.00     0.032 A 
BRANCH  31  34
ATOM     34  N   UNL d   1      10.638   7.098   7.081  0.00  0.00    -0.116 N 
ATOM     35  O   UNL d   1       9.982   7.911   6.387  0.00  0.00    -0.532 OA
ATOM     36  O   UNL d   1      11.854   6.869   6.866  0.00  0.00    -0.532 OA
ENDBRANCH  31  34
ENDBRANCH  26  28
ENDBRANCH   3  21
TORSDOF 6
ENDMDL
MODEL 6
REMARK VINA RESULT:      -7.1      6.748      9.182
REMARK  6 active torsions:
REMARK  status: ('A' for Active; 'I' for Inactive)
REMARK    1  A    between atoms: N_8  and  C_18 
REMARK    2  A    between atoms: N_9  and  N_11 
REMARK       I    between atoms: N_9  and  C_22 
REMARK    3  A    between atoms: N_10  and  C_25 
REMARK       I    between atoms: N_11  and  C_27 
REMARK    4  A    between atoms: N_12  and  C_26 
REMARK       I    between atoms: N_12  and  C_27 
REMARK    5  A    between atoms: C_19  and  C_22 
REMARK    6  A    between atoms: C_28  and  C_33 
ROOT
ATOM      1  O   UNL d   1       9.799  -2.856   9.560  0.00  0.00    -0.267 OA
ATOM      2  N   UNL d   1      11.996  -3.113  10.267  0.00  0.00    -0.263 N 
ATOM      3  C   UNL d   1      11.005  -2.694   9.402  0.00  0.00     0.260 C 
ATOM      4  H   UNL d   1      12.989  -2.965  10.115  0.00  0.00     0.190 HD
ENDROOT
BRANCH   2   5
ATOM      5  N   UNL d   1      11.638  -3.771  11.417  0.00  0.00    -0.248 N 
ATOM      6  C   UNL d   1      12.625  -4.113  12.341  0.00  0.00     0.339 C 
ATOM      7  O   UNL d   1      13.816  -3.853  12.182  0.00  0.00    -0.245 OA
ATOM      8  N   UNL d   1      12.056  -4.771  13.435  0.00  0.00    -0.308 N 
ATOM      9  H   UNL d   1      11.048  -4.905  13.409  0.00  0.00     0.170 HD
ATOM     10  H   UNL d   1      10.654  -3.977  11.546  0.00  0.00     0.192 HD
BRANCH   8  11
ATOM     11  C   UNL d   1      12.710  -5.278  14.581  0.00  0.00     0.037 A 
ATOM     12  C   UNL d   1      13.198  -4.403  15.551  0.00  0.00     0.045 A 
ATOM     13  C   UNL d   1      13.843  -4.905  16.682  0.00  0.00     0.050 A 
ATOM     14  C   UNL d   1      13.999  -6.281  16.842  0.00  0.00     0.016 A 
ATOM     15  C   UNL d   1      13.510  -7.157  15.873  0.00  0.00     0.003 A 
ATOM     16  C   UNL d   1      12.866  -6.655  14.743  0.00  0.00     0.029 A 
BRANCH  13  17
ATOM     17  C   UNL d   1      14.365  -3.968  17.718  0.00  0.00     0.417 C 
ATOM     18  F   UNL d   1      14.570  -2.698  17.257  0.00  0.00    -0.166 F 
ATOM     19  F   UNL d   1      15.566  -4.351  18.246  0.00  0.00    -0.166 F 
ATOM     20  F   UNL d   1      13.522  -3.840  18.784  0.00  0.00    -0.166 F 
ENDBRANCH  13  17
ENDBRANCH   8  11
ENDBRANCH   2   5
BRANCH   3  21
ATOM     21  C   UNL d   1      11.575  -2.003   8.218  0.00  0.00     0.078 C 
ATOM     22  C   UNL d   1      11.689  -0.667   8.205  0.00  0.00    -0.071 C 
ATOM     23  C   UNL d   1      12.256   0.096   7.041  0.00  0.00     0.054 C 
ATOM     24  C   UNL d   1      11.241   0.205   9.344  0.00  0.00     0.054 C 
ATOM     25  C   UNL d   1      11.270   1.166   6.567  0.00  0.00     0.127 C 
ATOM     26  N   UNL d   1      10.821   1.999   7.697  0.00  0.00    -0.380 N 
ATOM     27  C   UNL d   1      10.268   1.281   8.855  0.00  0.00     0.127 C 
BRANCH  26  28
ATOM     28  C   UNL d   1      10.366   3.289   7.405  0.00  0.00     0.030 A 
ATOM     29  C   UNL d   1       9.773   3.557   6.171  0.00  0.00     0.032 A 
ATOM     30  C   UNL d   1       9.319   4.843   5.879  0.00  0.00     0.038 A 
ATOM     31  C   UNL d   1       9.459   5.862   6.823  0.00  0.00     0.103 A 
ATOM     32  C   UNL d   1      10.052   5.595   8.056  0.00  0.00     0.038 A 
ATOM     33  C   UNL d   1      10.505   4.308   8.347  0.00  0.00     0.032 A 
BRANCH  31  34
ATOM     34  N   UNL d   1       8.998   7.172   6.526  0.00  0.00    -0.116 N 
ATOM     35  O   UNL d   1       9.752   7.955   5.899  0.00  0.00    -0.532 OA
ATOM     36  O   UNL d   1       7.850   7.512   6.900  0.00  0.00    -0.532 OA
ENDBRANCH  31  34
ENDBRANCH  26  28
ENDBRANCH   3  21
TORSDOF 6
ENDMDL
MODEL 7
REMARK VINA RESULT:      -7.0     11.361     14.486
REMARK  6 active torsions:
REMARK  status: ('A' for Active; 'I' for Inactive)
REMARK    1  A    between atoms: N_8  and  C_18 
REMARK    2  A    between atoms: N_9  and  N_11 
REMARK       I    between atoms: N_9  and  C_22 
REMARK    3  A    between atoms: N_10  and  C_25 
REMARK       I    between atoms: N_11  and  C_27 
REMARK    4  A    between atoms: N_12  and  C_26 
REMARK       I    between atoms: N_12  and  C_27 
REMARK    5  A    between atoms: C_19  and  C_22 
REMARK    6  A    between atoms: C_28  and  C_33 
ROOT
ATOM      1  O   UNL d   1      17.096   2.403  -0.266  0.00  0.00    -0.267 OA
ATOM      2  N   UNL d   1      16.662   4.340   0.941  0.00  0.00    -0.263 N 
ATOM      3  C   UNL d   1      16.417   3.045   0.531  0.00  0.00     0.260 C 
ATOM      4  H   UNL d   1      16.086   4.849   1.603  0.00  0.00     0.190 HD
ENDROOT
BRANCH   2   5
ATOM      5  N   UNL d   1      17.753   5.001   0.434  0.00  0.00    -0.248 N 
ATOM      6  C   UNL d   1      17.556   6.094  -0.409  0.00  0.00     0.339 C 
ATOM      7  O   UNL d   1      16.443   6.505  -0.729  0.00  0.00    -0.245 OA
ATOM      8  N   UNL d   1      18.786   6.622  -0.811  0.00  0.00    -0.308 N 
ATOM      9  H   UNL d   1      19.618   6.160  -0.451  0.00  0.00     0.170 HD
ATOM     10  H   UNL d   1      18.668   4.661   0.707  0.00  0.00     0.192 HD
BRANCH   8  11
ATOM     11  C   UNL d   1      19.022   7.727  -1.661  0.00  0.00     0.037 A 
ATOM     12  C   UNL d   1      18.860   9.026  -1.180  0.00  0.00     0.045 A 
ATOM     13  C   UNL d   1      19.093  10.115  -2.019  0.00  0.00     0.050 A 
ATOM     14  C   UNL d   1      19.488   9.906  -3.340  0.00  0.00     0.016 A 
ATOM     15  C   UNL d   1      19.651   8.607  -3.822  0.00  0.00     0.003 A 
ATOM     16  C   UNL d   1      19.418   7.518  -2.982  0.00  0.00     0.029 A 
BRANCH  13  17
ATOM     17  C   UNL d   1      18.919  11.504  -1.504  0.00  0.00     0.417 C 
ATOM     18  F   UNL d   1      18.136  11.580  -0.387  0.00  0.00    -0.166 F 
ATOM     19  F   UNL d   1      18.338  12.352  -2.404  0.00  0.00    -0.166 F 
ATOM     20  F   UNL d   1      20.103  12.090  -1.162  0.00  0.00    -0.166 F 
ENDBRANCH  13  17
ENDBRANCH   8  11
ENDBRANCH   2   5
BRANCH   3  21
ATOM     21  C   UNL d   1      15.202   2.491   1.179  0.00  0.00     0.078 C 
ATOM     22  C   UNL d   1      15.295   1.849   2.353  0.00  0.00    -0.071 C 
ATOM     23  C   UNL d   1      14.106   1.264   3.064  0.00  0.00     0.054 C 
ATOM     24  C   UNL d   1      16.599   1.630   3.066  0.00  0.00     0.054 C 
ATOM     25  C   UNL d   1      14.334  -0.218   3.362  0.00  0.00     0.127 C 
ATOM     26  N   UNL d   1      15.626  -0.422   4.040  0.00  0.00    -0.380 N 
ATOM     27  C   UNL d   1      16.808   0.145   3.373  0.00  0.00     0.127 C 
BRANCH  26  28
ATOM     28  C   UNL d   1      15.765  -1.568   4.831  0.00  0.00     0.030 A 
ATOM     29  C   UNL d   1      14.897  -1.787   5.901  0.00  0.00     0.032 A 
ATOM     30  C   UNL d   1      15.034  -2.929   6.689  0.00  0.00     0.038 A 
ATOM     31  C   UNL d   1      16.041  -3.853   6.407  0.00  0.00     0.103 A 
ATOM     32  C   UNL d   1      16.909  -3.635   5.339  0.00  0.00     0.038 A 
ATOM     33  C   UNL d   1      16.771  -2.493   4.550  0.00  0.00     0.032 A 
BRANCH  31  34
ATOM     34  N   UNL d   1      16.182  -5.016   7.210  0.00  0.00    -0.116 N 
ATOM     35  O   UNL d   1      16.451  -4.885   8.429  0.00  0.00    -0.532 OA
ATOM     36  O   UNL d   1      16.036  -6.144   6.679  0.00  0.00    -0.532 OA
ENDBRANCH  31  34
ENDBRANCH  26  28
ENDBRANCH   3  21
TORSDOF 6
ENDMDL
MODEL 8
REMARK VINA RESULT:      -7.0      9.944     13.624
REMARK  6 active torsions:
REMARK  status: ('A' for Active; 'I' for Inactive)
REMARK    1  A    between atoms: N_8  and  C_18 
REMARK    2  A    between atoms: N_9  and  N_11 
REMARK       I    between atoms: N_9  and  C_22 
REMARK    3  A    between atoms: N_10  and  C_25 
REMARK       I    between atoms: N_11  and  C_27 
REMARK    4  A    between atoms: N_12  and  C_26 
REMARK       I    between atoms: N_12  and  C_27 
REMARK    5  A    between atoms: C_19  and  C_22 
REMARK    6  A    between atoms: C_28  and  C_33 
ROOT
ATOM      1  O   UNL d   1      17.656  -2.209   1.165  0.00  0.00    -0.267 OA
ATOM      2  N   UNL d   1      18.958  -2.201   3.088  0.00  0.00    -0.263 N 
ATOM      3  C   UNL d   1      18.641  -1.837   1.795  0.00  0.00     0.260 C 
ATOM      4  H   UNL d   1      19.779  -1.878   3.589  0.00  0.00     0.190 HD
ENDROOT
BRANCH   2   5
ATOM      5  N   UNL d   1      18.118  -3.053   3.762  0.00  0.00    -0.248 N 
ATOM      6  C   UNL d   1      17.406  -2.577   4.862  0.00  0.00     0.339 C 
ATOM      7  O   UNL d   1      17.488  -1.420   5.268  0.00  0.00    -0.245 OA
ATOM      8  N   UNL d   1      16.614  -3.595   5.401  0.00  0.00    -0.308 N 
ATOM      9  H   UNL d   1      16.663  -4.500   4.941  0.00  0.00     0.170 HD
ATOM     10  H   UNL d   1      18.051  -4.004   3.419  0.00  0.00     0.192 HD
BRANCH   8  11
ATOM     11  C   UNL d   1      15.746  -3.523   6.516  0.00  0.00     0.037 A 
ATOM     12  C   UNL d   1      14.899  -2.427   6.672  0.00  0.00     0.045 A 
ATOM     13  C   UNL d   1      14.044  -2.357   7.772  0.00  0.00     0.050 A 
ATOM     14  C   UNL d   1      14.036  -3.385   8.715  0.00  0.00     0.016 A 
ATOM     15  C   UNL d   1      14.882  -4.482   8.558  0.00  0.00     0.003 A 
ATOM     16  C   UNL d   1      15.737  -4.552   7.459  0.00  0.00     0.029 A 
BRANCH  13  17
ATOM     17  C   UNL d   1      13.139  -1.184   7.939  0.00  0.00     0.417 C 
ATOM     18  F   UNL d   1      13.542  -0.078   7.246  0.00  0.00    -0.166 F 
ATOM     19  F   UNL d   1      13.017  -0.767   9.234  0.00  0.00    -0.166 F 
ATOM     20  F   UNL d   1      11.866  -1.437   7.516  0.00  0.00    -0.166 F 
ENDBRANCH  13  17
ENDBRANCH   8  11
ENDBRANCH   2   5
BRANCH   3  21
ATOM     21  C   UNL d   1      19.656  -0.915   1.227  0.00  0.00     0.078 C 
ATOM     22  C   UNL d   1      19.494   0.412   1.325  0.00  0.00    -0.071 C 
ATOM     23  C   UNL d   1      20.482   1.402   0.773  0.00  0.00     0.054 C 
ATOM     24  C   UNL d   1      18.299   1.046   1.979  0.00  0.00     0.054 C 
ATOM     25  C   UNL d   1      19.787   2.384  -0.172  0.00  0.00     0.127 C 
ATOM     26  N   UNL d   1      18.604   2.980   0.471  0.00  0.00    -0.380 N 
ATOM     27  C   UNL d   1      17.622   2.038   1.029  0.00  0.00     0.127 C 
BRANCH  26  28
ATOM     28  C   UNL d   1      18.173   4.226   0.001  0.00  0.00     0.030 A 
ATOM     29  C   UNL d   1      16.831   4.588   0.114  0.00  0.00     0.032 A 
ATOM     30  C   UNL d   1      16.401   5.829  -0.354  0.00  0.00     0.038 A 
ATOM     31  C   UNL d   1      17.315   6.709  -0.937  0.00  0.00     0.103 A 
ATOM     32  C   UNL d   1      18.656   6.346  -1.052  0.00  0.00     0.038 A 
ATOM     33  C   UNL d   1      19.085   5.105  -0.582  0.00  0.00     0.032 A 
BRANCH  31  34
ATOM     34  N   UNL d   1      16.878   7.972  -1.416  0.00  0.00    -0.116 N 
ATOM     35  O   UNL d   1      15.658   8.145  -1.652  0.00  0.00    -0.532 OA
ATOM     36  O   UNL d   1      17.724   8.883  -1.590  0.00  0.00    -0.532 OA
ENDBRANCH  31  34
ENDBRANCH  26  28
ENDBRANCH   3  21
TORSDOF 6
ENDMDL
MODEL 9
REMARK VINA RESULT:      -7.0     13.578     14.727
REMARK  6 active torsions:
REMARK  status: ('A' for Active; 'I' for Inactive)
REMARK    1  A    between atoms: N_8  and  C_18 
REMARK    2  A    between atoms: N_9  and  N_11 
REMARK       I    between atoms: N_9  and  C_22 
REMARK    3  A    between atoms: N_10  and  C_25 
REMARK       I    between atoms: N_11  and  C_27 
REMARK    4  A    between atoms: N_12  and  C_26 
REMARK       I    between atoms: N_12  and  C_27 
REMARK    5  A    between atoms: C_19  and  C_22 
REMARK    6  A    between atoms: C_28  and  C_33 
ROOT
ATOM      1  O   UNL d   1      16.163   8.045  -1.511  0.00  0.00    -0.267 OA
ATOM      2  N   UNL d   1      18.385   7.790  -0.889  0.00  0.00    -0.263 N 
ATOM      3  C   UNL d   1      17.323   8.444  -1.479  0.00  0.00     0.260 C 
ATOM      4  H   UNL d   1      19.337   8.143  -0.873  0.00  0.00     0.190 HD
ENDROOT
BRANCH   2   5
ATOM      5  N   UNL d   1      18.162   6.584  -0.272  0.00  0.00    -0.248 N 
ATOM      6  C   UNL d   1      19.067   5.541  -0.469  0.00  0.00     0.339 C 
ATOM      7  O   UNL d   1      20.069   5.643  -1.174  0.00  0.00    -0.245 OA
ATOM      8  N   UNL d   1      18.661   4.409   0.242  0.00  0.00    -0.308 N 
ATOM      9  H   UNL d   1      17.803   4.495   0.780  0.00  0.00     0.170 HD
ATOM     10  H   UNL d   1      17.338   6.508   0.313  0.00  0.00     0.192 HD
BRANCH   8  11
ATOM     11  C   UNL d   1      19.299   3.149   0.308  0.00  0.00     0.037 A 
ATOM     12  C   UNL d   1      19.278   2.416   1.494  0.00  0.00     0.045 A 
ATOM     13  C   UNL d   1      19.907   1.173   1.557  0.00  0.00     0.050 A 
ATOM     14  C   UNL d   1      20.558   0.663   0.435  0.00  0.00     0.016 A 
ATOM     15  C   UNL d   1      20.579   1.394  -0.752  0.00  0.00     0.003 A 
ATOM     16  C   UNL d   1      19.950   2.637  -0.816  0.00  0.00     0.029 A 
BRANCH  13  17
ATOM     17  C   UNL d   1      19.885   0.390   2.827  0.00  0.00     0.417 C 
ATOM     18  F   UNL d   1      20.593   0.971   3.841  0.00  0.00    -0.166 F 
ATOM     19  F   UNL d   1      20.406  -0.867   2.704  0.00  0.00    -0.166 F 
ATOM     20  F   UNL d   1      18.622   0.215   3.314  0.00  0.00    -0.166 F 
ENDBRANCH  13  17
ENDBRANCH   8  11
ENDBRANCH   2   5
BRANCH   3  21
ATOM     21  C   UNL d   1      17.748   9.727  -2.092  0.00  0.00     0.078 C 
ATOM     22  C   UNL d   1      17.724  10.860  -1.376  0.00  0.00    -0.071 C 
ATOM     23  C   UNL d   1      18.141  12.192  -1.934  0.00  0.00     0.054 C 
ATOM     24  C   UNL d   1      17.257  10.918   0.051  0.00  0.00     0.054 C 
ATOM     25  C   UNL d   1      17.025  13.223  -1.756  0.00  0.00     0.127 C 
ATOM     26  N   UNL d   1      16.560  13.253  -0.358  0.00  0.00    -0.380 N 
ATOM     27  C   UNL d   1      16.152  11.963   0.220  0.00  0.00     0.127 C 
BRANCH  26  28
ATOM     28  C   UNL d   1      15.959  14.432   0.097  0.00  0.00     0.030 A 
ATOM     29  C   UNL d   1      14.890  14.371   0.991  0.00  0.00     0.032 A 
ATOM     30  C   UNL d   1      14.292  15.546   1.444  0.00  0.00     0.038 A 
ATOM     31  C   UNL d   1      14.762  16.784   1.003  0.00  0.00     0.103 A 
ATOM     32  C   UNL d   1      15.830  16.845   0.109  0.00  0.00     0.038 A 
ATOM     33  C   UNL d   1      16.429  15.669  -0.344  0.00  0.00     0.032 A 
BRANCH  31  34
ATOM     34  N   UNL d   1      14.152  17.980   1.463  0.00  0.00    -0.116 N 
ATOM     35  O   UNL d   1      13.439  17.942   2.494  0.00  0.00    -0.532 OA
ATOM     36  O   UNL d   1      14.343  19.045   0.825  0.00  0.00    -0.532 OA
ENDBRANCH  31  34
ENDBRANCH  26  28
ENDBRANCH   3  21
TORSDOF 6
ENDMDL
