MODEL 1
REMARK VINA RESULT:      -6.8      0.000      0.000
REMARK  2 active torsions:
REMARK  status: ('A' for Active; 'I' for Inactive)
REMARK    1  A    between atoms: O_1  and  C_7 
REMARK    2  A    between atoms: O_2  and  C_20 
ROOT
ATOM      1  C   UNL d   1       9.855   5.686   7.970  0.00  0.00    -0.014 C 
ATOM      2  C   UNL d   1       8.681   6.477   8.578  0.00  0.00     0.001 C 
ATOM      3  C   UNL d   1       7.839   5.622   9.525  0.00  0.00    -0.001 C 
ATOM      4  C   UNL d   1       8.741   5.150  10.705  0.00  0.00     0.023 C 
ATOM      5  C   UNL d   1      10.438   6.775   7.048  0.00  0.00     0.126 C 
ATOM      6  C   UNL d   1      10.779   5.247   9.113  0.00  0.00     0.013 C 
ATOM      7  C   UNL d   1       8.018   7.121   7.363  0.00  0.00     0.008 C 
ATOM      8  C   UNL d   1      10.020   4.440  10.185  0.00  0.00     0.010 C 
ATOM      9  C   UNL d   1       9.195   7.436   6.421  0.00  0.00     0.033 C 
ATOM     10  C   UNL d   1       6.637   6.382  10.090  0.00  0.00     0.010 C 
ATOM     11  C   UNL d   1       9.442   4.443   7.141  0.00  0.00     0.018 C 
ATOM     12  C   UNL d   1       7.936   4.359  11.734  0.00  0.00    -0.047 A 
ATOM     13  C   UNL d   1       5.764   5.435  10.909  0.00  0.00     0.039 C 
ATOM     14  C   UNL d   1       6.540   4.538  11.843  0.00  0.00    -0.049 A 
ATOM     15  C   UNL d   1       8.570   3.505  12.652  0.00  0.00     0.011 A 
ATOM     16  C   UNL d   1       5.816   3.829  12.819  0.00  0.00     0.044 A 
ATOM     17  C   UNL d   1       7.842   2.813  13.622  0.00  0.00     0.037 A 
ATOM     18  C   UNL d   1       6.464   2.970  13.703  0.00  0.00     0.066 A 
ENDROOT
BRANCH   5  19
ATOM     19  O   UNL d   1      11.310   6.257   6.062  0.00  0.00    -0.395 OA
ATOM     20  H   UNL d   1      11.204   5.290   6.057  0.00  0.00     0.210 HD
ENDBRANCH   5  19
BRANCH  18  21
ATOM     21  O   UNL d   1       5.752   2.296  14.644  0.00  0.00    -0.361 OA
ATOM     22  H   UNL d   1       5.704   2.838  15.452  0.00  0.00     0.217 HD
ENDBRANCH  18  21
TORSDOF 2
ENDMDL
MODEL 2
REMARK VINA RESULT:      -6.5      1.509      6.750
REMARK  2 active torsions:
REMARK  status: ('A' for Active; 'I' for Inactive)
REMARK    1  A    between atoms: O_1  and  C_7 
REMARK    2  A    between atoms: O_2  and  C_20 
ROOT
ATOM      1  C   UNL d   1       4.711   4.610  12.467  0.00  0.00    -0.014 C 
ATOM      2  C   UNL d   1       6.124   4.132  12.856  0.00  0.00     0.001 C 
ATOM      3  C   UNL d   1       7.110   4.239  11.693  0.00  0.00    -0.001 C 
ATOM      4  C   UNL d   1       7.225   5.735  11.272  0.00  0.00     0.023 C 
ATOM      5  C   UNL d   1       3.977   4.318  13.790  0.00  0.00     0.126 C 
ATOM      6  C   UNL d   1       4.797   6.094  12.089  0.00  0.00     0.013 C 
ATOM      7  C   UNL d   1       5.874   2.772  13.502  0.00  0.00     0.008 C 
ATOM      8  C   UNL d   1       5.829   6.344  10.973  0.00  0.00     0.010 C 
ATOM      9  C   UNL d   1       4.526   2.947  14.227  0.00  0.00     0.033 C 
ATOM     10  C   UNL d   1       8.501   3.714  12.052  0.00  0.00     0.010 C 
ATOM     11  C   UNL d   1       4.057   3.823  11.303  0.00  0.00     0.018 C 
ATOM     12  C   UNL d   1       8.262   5.920  10.166  0.00  0.00    -0.047 A 
ATOM     13  C   UNL d   1       9.391   3.716  10.812  0.00  0.00     0.039 C 
ATOM     14  C   UNL d   1       9.300   4.979   9.992  0.00  0.00    -0.049 A 
ATOM     15  C   UNL d   1       8.263   7.069   9.356  0.00  0.00     0.011 A 
ATOM     16  C   UNL d   1      10.268   5.181   8.991  0.00  0.00     0.044 A 
ATOM     17  C   UNL d   1       9.235   7.262   8.372  0.00  0.00     0.037 A 
ATOM     18  C   UNL d   1      10.235   6.316   8.186  0.00  0.00     0.066 A 
ENDROOT
BRANCH   5  19
ATOM     19  O   UNL d   1       2.570   4.300  13.650  0.00  0.00    -0.395 OA
ATOM     20  H   UNL d   1       2.205   4.941  14.284  0.00  0.00     0.210 HD
ENDBRANCH   5  19
BRANCH  18  21
ATOM     21  O   UNL d   1      11.181   6.500   7.227  0.00  0.00    -0.361 OA
ATOM     22  H   UNL d   1      10.884   7.201   6.621  0.00  0.00     0.217 HD
ENDBRANCH  18  21
TORSDOF 2
ENDMDL
MODEL 3
REMARK VINA RESULT:      -6.4      3.009      5.714
REMARK  2 active torsions:
REMARK  status: ('A' for Active; 'I' for Inactive)
REMARK    1  A    between atoms: O_1  and  C_7 
REMARK    2  A    between atoms: O_2  and  C_20 
ROOT
ATOM      1  C   UNL d   1       4.125   6.747   8.615  0.00  0.00    -0.014 C 
ATOM      2  C   UNL d   1       4.717   6.726  10.038  0.00  0.00     0.001 C 
ATOM      3  C   UNL d   1       6.060   5.997  10.094  0.00  0.00    -0.001 C 
ATOM      4  C   UNL d   1       7.074   6.750   9.180  0.00  0.00     0.023 C 
ATOM      5  C   UNL d   1       2.795   7.466   8.910  0.00  0.00     0.126 C 
ATOM      6  C   UNL d   1       5.090   7.521   7.708  0.00  0.00     0.013 C 
ATOM      7  C   UNL d   1       3.559   6.227  10.898  0.00  0.00     0.008 C 
ATOM      8  C   UNL d   1       6.511   6.927   7.744  0.00  0.00     0.010 C 
ATOM      9  C   UNL d   1       2.311   6.830  10.228  0.00  0.00     0.033 C 
ATOM     10  C   UNL d   1       6.629   5.921  11.512  0.00  0.00     0.010 C 
ATOM     11  C   UNL d   1       3.857   5.349   8.002  0.00  0.00     0.018 C 
ATOM     12  C   UNL d   1       8.462   6.118   9.258  0.00  0.00    -0.047 A 
ATOM     13  C   UNL d   1       7.890   5.062  11.519  0.00  0.00     0.039 C 
ATOM     14  C   UNL d   1       8.843   5.362  10.387  0.00  0.00    -0.049 A 
ATOM     15  C   UNL d   1       9.421   6.347   8.257  0.00  0.00     0.011 A 
ATOM     16  C   UNL d   1      10.137   4.816  10.461  0.00  0.00     0.044 A 
ATOM     17  C   UNL d   1      10.706   5.807   8.345  0.00  0.00     0.037 A 
ATOM     18  C   UNL d   1      11.063   5.037   9.445  0.00  0.00     0.066 A 
ENDROOT
BRANCH   5  19
ATOM     19  O   UNL d   1       1.843   7.317   7.875  0.00  0.00    -0.395 OA
ATOM     20  H   UNL d   1       2.281   7.554   7.039  0.00  0.00     0.210 HD
ENDBRANCH   5  19
BRANCH  18  21
ATOM     21  O   UNL d   1      12.312   4.507   9.533  0.00  0.00    -0.361 OA
ATOM     22  H   UNL d   1      12.928   5.199   9.832  0.00  0.00     0.217 HD
ENDBRANCH  18  21
TORSDOF 2
ENDMDL
MODEL 4
REMARK VINA RESULT:      -6.3      2.524      3.722
REMARK  2 active torsions:
REMARK  status: ('A' for Active; 'I' for Inactive)
REMARK    1  A    between atoms: O_1  and  C_7 
REMARK    2  A    between atoms: O_2  and  C_20 
ROOT
ATOM      1  C   UNL d   1       9.317   4.900   9.706  0.00  0.00    -0.014 C 
ATOM      2  C   UNL d   1       8.605   5.945   8.825  0.00  0.00     0.001 C 
ATOM      3  C   UNL d   1       7.096   5.971   9.065  0.00  0.00    -0.001 C 
ATOM      4  C   UNL d   1       6.835   6.361  10.552  0.00  0.00     0.023 C 
ATOM      5  C   UNL d   1      10.758   5.077   9.188  0.00  0.00     0.126 C 
ATOM      6  C   UNL d   1       9.107   5.291  11.175  0.00  0.00     0.013 C 
ATOM      7  C   UNL d   1       9.134   5.648   7.424  0.00  0.00     0.008 C 
ATOM      8  C   UNL d   1       7.612   5.431  11.522  0.00  0.00     0.010 C 
ATOM      9  C   UNL d   1      10.591   5.209   7.662  0.00  0.00     0.033 C 
ATOM     10  C   UNL d   1       6.373   6.965   8.155  0.00  0.00     0.010 C 
ATOM     11  C   UNL d   1       8.844   3.439   9.494  0.00  0.00     0.018 C 
ATOM     12  C   UNL d   1       5.339   6.487  10.835  0.00  0.00    -0.047 A 
ATOM     13  C   UNL d   1       4.864   6.838   8.344  0.00  0.00     0.039 C 
ATOM     14  C   UNL d   1       4.432   6.754   9.788  0.00  0.00    -0.049 A 
ATOM     15  C   UNL d   1       4.842   6.431  12.148  0.00  0.00     0.011 A 
ATOM     16  C   UNL d   1       3.061   6.902  10.069  0.00  0.00     0.044 A 
ATOM     17  C   UNL d   1       3.480   6.589  12.416  0.00  0.00     0.037 A 
ATOM     18  C   UNL d   1       2.589   6.819  11.376  0.00  0.00     0.066 A 
ENDROOT
BRANCH   5  19
ATOM     19  O   UNL d   1      11.606   3.999   9.532  0.00  0.00    -0.395 OA
ATOM     20  H   UNL d   1      12.480   4.371   9.742  0.00  0.00     0.210 HD
ENDBRANCH   5  19
BRANCH  18  21
ATOM     21  O   UNL d   1       1.262   6.970  11.633  0.00  0.00    -0.361 OA
ATOM     22  H   UNL d   1       0.799   6.147  11.398  0.00  0.00     0.217 HD
ENDBRANCH  18  21
TORSDOF 2
ENDMDL
MODEL 5
REMARK VINA RESULT:      -6.2      2.272      6.181
REMARK  2 active torsions:
REMARK  status: ('A' for Active; 'I' for Inactive)
REMARK    1  A    between atoms: O_1  and  C_7 
REMARK    2  A    between atoms: O_2  and  C_20 
ROOT
ATOM      1  C   UNL d   1       4.054   5.995  11.788  0.00  0.00    -0.014 C 
ATOM      2  C   UNL d   1       4.280   6.282  10.290  0.00  0.00     0.001 C 
ATOM      3  C   UNL d   1       5.753   6.525   9.965  0.00  0.00    -0.001 C 
ATOM      4  C   UNL d   1       6.561   5.239  10.319  0.00  0.00     0.023 C 
ATOM      5  C   UNL d   1       2.519   5.868  11.789  0.00  0.00     0.126 C 
ATOM      6  C   UNL d   1       4.808   4.708  12.147  0.00  0.00     0.013 C 
ATOM      7  C   UNL d   1       3.255   7.369   9.978  0.00  0.00     0.008 C 
ATOM      8  C   UNL d   1       6.303   4.800  11.785  0.00  0.00     0.010 C 
ATOM      9  C   UNL d   1       2.050   7.011  10.867  0.00  0.00     0.033 C 
ATOM     10  C   UNL d   1       5.981   6.866   8.491  0.00  0.00     0.010 C 
ATOM     11  C   UNL d   1       4.501   7.132  12.742  0.00  0.00     0.018 C 
ATOM     12  C   UNL d   1       8.032   5.389   9.937  0.00  0.00    -0.047 A 
ATOM     13  C   UNL d   1       7.444   7.236   8.265  0.00  0.00     0.039 C 
ATOM     14  C   UNL d   1       8.424   6.305   8.938  0.00  0.00    -0.049 A 
ATOM     15  C   UNL d   1       9.017   4.560  10.502  0.00  0.00     0.011 A 
ATOM     16  C   UNL d   1       9.778   6.406   8.572  0.00  0.00     0.044 A 
ATOM     17  C   UNL d   1      10.357   4.665  10.124  0.00  0.00     0.037 A 
ATOM     18  C   UNL d   1      10.739   5.591   9.163  0.00  0.00     0.066 A 
ENDROOT
BRANCH   5  19
ATOM     19  O   UNL d   1       1.955   5.972  13.081  0.00  0.00    -0.395 OA
ATOM     20  H   UNL d   1       1.302   5.256  13.174  0.00  0.00     0.210 HD
ENDBRANCH   5  19
BRANCH  18  21
ATOM     21  O   UNL d   1      12.044   5.697   8.794  0.00  0.00    -0.361 OA
ATOM     22  H   UNL d   1      12.275   6.640   8.719  0.00  0.00     0.217 HD
ENDBRANCH  18  21
TORSDOF 2
ENDMDL
MODEL 6
REMARK VINA RESULT:      -6.2      1.281      1.766
REMARK  2 active torsions:
REMARK  status: ('A' for Active; 'I' for Inactive)
REMARK    1  A    between atoms: O_1  and  C_7 
REMARK    2  A    between atoms: O_2  and  C_20 
ROOT
ATOM      1  C   UNL d   1       9.120   5.120   9.300  0.00  0.00    -0.014 C 
ATOM      2  C   UNL d   1       8.183   6.156   9.950  0.00  0.00     0.001 C 
ATOM      3  C   UNL d   1       7.025   5.497  10.699  0.00  0.00    -0.001 C 
ATOM      4  C   UNL d   1       7.609   4.616  11.844  0.00  0.00     0.023 C 
ATOM      5  C   UNL d   1      10.101   6.078   8.596  0.00  0.00     0.126 C 
ATOM      6  C   UNL d   1       9.739   4.269  10.416  0.00  0.00     0.013 C 
ATOM      7  C   UNL d   1       7.881   7.127   8.811  0.00  0.00     0.008 C 
ATOM      8  C   UNL d   1       8.661   3.612  11.300  0.00  0.00     0.010 C 
ATOM      9  C   UNL d   1       9.192   7.173   8.004  0.00  0.00     0.033 C 
ATOM     10  C   UNL d   1       6.057   6.517  11.300  0.00  0.00     0.010 C 
ATOM     11  C   UNL d   1       8.441   4.188   8.264  0.00  0.00     0.018 C 
ATOM     12  C   UNL d   1       6.497   3.994  12.686  0.00  0.00    -0.047 A 
ATOM     13  C   UNL d   1       4.855   5.797  11.906  0.00  0.00     0.039 C 
ATOM     14  C   UNL d   1       5.218   4.589  12.735  0.00  0.00    -0.049 A 
ATOM     15  C   UNL d   1       6.740   2.873  13.498  0.00  0.00     0.011 A 
ATOM     16  C   UNL d   1       4.213   4.025  13.542  0.00  0.00     0.044 A 
ATOM     17  C   UNL d   1       5.737   2.327  14.301  0.00  0.00     0.037 A 
ATOM     18  C   UNL d   1       4.471   2.900  14.320  0.00  0.00     0.066 A 
ENDROOT
BRANCH   5  19
ATOM     19  O   UNL d   1      10.876   5.443   7.598  0.00  0.00    -0.395 OA
ATOM     20  H   UNL d   1      10.852   6.008   6.806  0.00  0.00     0.210 HD
ENDBRANCH   5  19
BRANCH  18  21
ATOM     21  O   UNL d   1       3.491   2.369  15.099  0.00  0.00    -0.361 OA
ATOM     22  H   UNL d   1       2.979   3.094  15.499  0.00  0.00     0.217 HD
ENDBRANCH  18  21
TORSDOF 2
ENDMDL
MODEL 7
REMARK VINA RESULT:      -6.2      1.306      6.491
REMARK  2 active torsions:
REMARK  status: ('A' for Active; 'I' for Inactive)
REMARK    1  A    between atoms: O_1  and  C_7 
REMARK    2  A    between atoms: O_2  and  C_20 
ROOT
ATOM      1  C   UNL d   1       6.606   2.286  12.926  0.00  0.00    -0.014 C 
ATOM      2  C   UNL d   1       5.941   3.511  12.269  0.00  0.00     0.001 C 
ATOM      3  C   UNL d   1       6.956   4.412  11.567  0.00  0.00    -0.001 C 
ATOM      4  C   UNL d   1       7.647   3.595  10.433  0.00  0.00     0.023 C 
ATOM      5  C   UNL d   1       5.365   1.649  13.580  0.00  0.00     0.126 C 
ATOM      6  C   UNL d   1       7.257   1.446  11.820  0.00  0.00     0.013 C 
ATOM      7  C   UNL d   1       5.076   4.088  13.387  0.00  0.00     0.008 C 
ATOM      8  C   UNL d   1       8.249   2.273  10.981  0.00  0.00     0.010 C 
ATOM      9  C   UNL d   1       4.592   2.848  14.162  0.00  0.00     0.033 C 
ATOM     10  C   UNL d   1       6.313   5.660  10.960  0.00  0.00     0.010 C 
ATOM     11  C   UNL d   1       7.668   2.623  14.004  0.00  0.00     0.018 C 
ATOM     12  C   UNL d   1       8.615   4.465   9.636  0.00  0.00    -0.047 A 
ATOM     13  C   UNL d   1       7.395   6.581  10.403  0.00  0.00     0.039 C 
ATOM     14  C   UNL d   1       8.455   5.867   9.600  0.00  0.00    -0.049 A 
ATOM     15  C   UNL d   1       9.630   3.892   8.850  0.00  0.00     0.011 A 
ATOM     16  C   UNL d   1       9.334   6.654   8.832  0.00  0.00     0.044 A 
ATOM     17  C   UNL d   1      10.490   4.682   8.086  0.00  0.00     0.037 A 
ATOM     18  C   UNL d   1      10.346   6.064   8.080  0.00  0.00     0.066 A 
ENDROOT
BRANCH   5  19
ATOM     19  O   UNL d   1       5.689   0.700  14.577  0.00  0.00    -0.395 OA
ATOM     20  H   UNL d   1       6.638   0.501  14.493  0.00  0.00     0.210 HD
ENDBRANCH   5  19
BRANCH  18  21
ATOM     21  O   UNL d   1      11.184   6.837   7.340  0.00  0.00    -0.361 OA
ATOM     22  H   UNL d   1      12.101   6.555   7.503  0.00  0.00     0.217 HD
ENDBRANCH  18  21
TORSDOF 2
ENDMDL
MODEL 8
REMARK VINA RESULT:      -5.8      8.904     11.801
REMARK  2 active torsions:
REMARK  status: ('A' for Active; 'I' for Inactive)
REMARK    1  A    between atoms: O_1  and  C_7 
REMARK    2  A    between atoms: O_2  and  C_20 
ROOT
ATOM      1  C   UNL d   1      11.835  -1.738   8.248  0.00  0.00    -0.014 C 
ATOM      2  C   UNL d   1      12.963  -2.662   8.748  0.00  0.00     0.001 C 
ATOM      3  C   UNL d   1      13.941  -3.035   7.633  0.00  0.00    -0.001 C 
ATOM      4  C   UNL d   1      14.610  -1.731   7.101  0.00  0.00     0.023 C 
ATOM      5  C   UNL d   1      11.020  -1.615   9.550  0.00  0.00     0.126 C 
ATOM      6  C   UNL d   1      12.471  -0.431   7.759  0.00  0.00     0.013 C 
ATOM      7  C   UNL d   1      12.215  -3.769   9.487  0.00  0.00     0.008 C 
ATOM      8  C   UNL d   1      13.544  -0.683   6.682  0.00  0.00     0.010 C 
ATOM      9  C   UNL d   1      11.014  -3.045  10.123  0.00  0.00     0.033 C 
ATOM     10  C   UNL d   1      15.031  -3.997   8.106  0.00  0.00     0.010 C 
ATOM     11  C   UNL d   1      10.958  -2.335   7.118  0.00  0.00     0.018 C 
ATOM     12  C   UNL d   1      15.662  -2.044   6.040  0.00  0.00    -0.047 A 
ATOM     13  C   UNL d   1      15.883  -4.438   6.918  0.00  0.00     0.039 C 
ATOM     14  C   UNL d   1      16.281  -3.311   5.996  0.00  0.00    -0.049 A 
ATOM     15  C   UNL d   1      16.105  -1.056   5.143  0.00  0.00     0.011 A 
ATOM     16  C   UNL d   1      17.275  -3.573   5.035  0.00  0.00     0.044 A 
ATOM     17  C   UNL d   1      17.098  -1.326   4.199  0.00  0.00     0.037 A 
ATOM     18  C   UNL d   1      17.680  -2.586   4.141  0.00  0.00     0.066 A 
ENDROOT
BRANCH   5  19
ATOM     19  O   UNL d   1       9.709  -1.129   9.338  0.00  0.00    -0.395 OA
ATOM     20  H   UNL d   1       9.728  -0.576   8.537  0.00  0.00     0.210 HD
ENDBRANCH   5  19
BRANCH  18  21
ATOM     21  O   UNL d   1      18.645  -2.853   3.222  0.00  0.00    -0.361 OA
ATOM     22  H   UNL d   1      19.517  -2.753   3.642  0.00  0.00     0.217 HD
ENDBRANCH  18  21
TORSDOF 2
ENDMDL
MODEL 9
REMARK VINA RESULT:      -5.6      3.400      5.398
REMARK  2 active torsions:
REMARK  status: ('A' for Active; 'I' for Inactive)
REMARK    1  A    between atoms: O_1  and  C_7 
REMARK    2  A    between atoms: O_2  and  C_20 
ROOT
ATOM      1  C   UNL d   1       2.898   6.381  10.312  0.00  0.00    -0.014 C 
ATOM      2  C   UNL d   1       4.161   5.924   9.556  0.00  0.00     0.001 C 
ATOM      3  C   UNL d   1       5.279   5.496  10.506  0.00  0.00    -0.001 C 
ATOM      4  C   UNL d   1       4.779   4.284  11.350  0.00  0.00     0.023 C 
ATOM      5  C   UNL d   1       2.025   6.794   9.111  0.00  0.00     0.126 C 
ATOM      6  C   UNL d   1       2.366   5.188  11.116  0.00  0.00     0.013 C 
ATOM      7  C   UNL d   1       4.414   7.060   8.568  0.00  0.00     0.008 C 
ATOM      8  C   UNL d   1       3.437   4.610  12.060  0.00  0.00     0.010 C 
ATOM      9  C   UNL d   1       3.002   7.535   8.177  0.00  0.00     0.033 C 
ATOM     10  C   UNL d   1       6.557   5.095   9.768  0.00  0.00     0.010 C 
ATOM     11  C   UNL d   1       3.109   7.586  11.263  0.00  0.00     0.018 C 
ATOM     12  C   UNL d   1       5.882   3.754  12.263  0.00  0.00    -0.047 A 
ATOM     13  C   UNL d   1       7.671   4.818  10.773  0.00  0.00     0.039 C 
ATOM     14  C   UNL d   1       7.240   3.980  11.952  0.00  0.00    -0.049 A 
ATOM     15  C   UNL d   1       5.580   2.956  13.380  0.00  0.00     0.011 A 
ATOM     16  C   UNL d   1       8.246   3.455  12.783  0.00  0.00     0.044 A 
ATOM     17  C   UNL d   1       6.588   2.433  14.193  0.00  0.00     0.037 A 
ATOM     18  C   UNL d   1       7.921   2.686  13.898  0.00  0.00     0.066 A 
ENDROOT
BRANCH   5  19
ATOM     19  O   UNL d   1       0.929   7.609   9.477  0.00  0.00    -0.395 OA
ATOM     20  H   UNL d   1       0.788   8.249   8.758  0.00  0.00     0.210 HD
ENDBRANCH   5  19
BRANCH  18  21
ATOM     21  O   UNL d   1       8.905   2.181  14.689  0.00  0.00    -0.361 OA
ATOM     22  H   UNL d   1       8.543   1.443  15.210  0.00  0.00     0.217 HD
ENDBRANCH  18  21
TORSDOF 2
ENDMDL
