MODEL 1
REMARK VINA RESULT:      -5.7      0.000      0.000
REMARK  8 active torsions:
REMARK  status: ('A' for Active; 'I' for Inactive)
REMARK    1  A    between atoms: O_4  and  C_14 
REMARK    2  A    between atoms: O_4  and  C_18 
REMARK    3  A    between atoms: O_5  and  C_17 
REMARK    4  A    between atoms: O_7  and  C_23 
REMARK    5  A    between atoms: N_8  and  CA_10 
REMARK    6  A    between atoms: C_9  and  CA_10 
REMARK    7  A    between atoms: C_9  and  C_11 
REMARK    8  A    between atoms: CA_10  and  C_17 
ROOT
ATOM      1  I   UNL d   1      15.626  -5.536   6.650  0.00  0.00    -0.042 I 
ATOM      2  I   UNL d   1      12.091  -0.682   7.743  0.00  0.00    -0.042 I 
ATOM      3  C   UNL d   1      15.864  -1.319   5.731  0.00  0.00    -0.053 A 
ATOM      4  C   UNL d   1      14.720  -0.754   6.272  0.00  0.00     0.028 A 
ATOM      5  C   UNL d   1      16.119  -2.676   5.839  0.00  0.00     0.028 A 
ATOM      6  C   UNL d   1      14.050  -2.939   7.058  0.00  0.00     0.109 A 
ATOM      7  C   UNL d   1      15.206  -3.491   6.507  0.00  0.00     0.042 A 
ATOM      8  C   UNL d   1      13.807  -1.570   6.940  0.00  0.00     0.042 A 
ENDROOT
BRANCH   6   9
ATOM      9  O   UNL d   1      13.155  -3.737   7.711  0.00  0.00    -0.308 OA
BRANCH   9  10
ATOM     10  C   UNL d   1      13.201  -3.751   9.093  0.00  0.00     0.077 A 
ATOM     11  C   UNL d   1      12.070  -4.113   9.804  0.00  0.00     0.058 A 
ATOM     12  C   UNL d   1      12.117  -4.126  11.198  0.00  0.00     0.042 A 
ATOM     13  I   UNL d   1      10.397  -4.676  12.249  0.00  0.00    -0.042 I 
ATOM     14  C   UNL d   1      13.295  -3.777  11.859  0.00  0.00     0.082 A 
ATOM     15  C   UNL d   1      14.425  -3.415  11.127  0.00  0.00     0.040 A 
ATOM     16  C   UNL d   1      14.377  -3.402   9.733  0.00  0.00     0.040 A 
BRANCH  14  17
ATOM     17  O   UNL d   1      13.383  -3.777  13.220  0.00  0.00    -0.359 OA
ATOM     18  H   UNL d   1      12.492  -3.866  13.599  0.00  0.00     0.217 HD
ENDBRANCH  14  17
ENDBRANCH   9  10
ENDBRANCH   6   9
BRANCH   3  19
ATOM     19  C   UNL d   1      16.853  -0.435   5.007  0.00  0.00     0.085 C 
BRANCH  19  20
ATOM     20  CA  UNL d   1      18.169  -1.156   4.678  0.00  0.00     0.318 C 
BRANCH  20  21
ATOM     21  N   UNL d   1      19.284  -0.217   4.771  0.00  0.00     0.093 N 
ATOM     22  H1  UNL d   1      18.957   0.725   4.563  0.00  0.00     0.314 HD
ATOM     23  H2  UNL d   1      19.979  -0.433   4.056  0.00  0.00     0.314 HD
ENDBRANCH  20  21
BRANCH  20  24
ATOM     24  C   UNL d   1      18.180  -1.706   3.262  0.00  0.00     0.174 C 
ATOM     25  OXT UNL d   1      17.489  -1.286   2.343  0.00  0.00    -0.648 OA
BRANCH  24  26
ATOM     26  O   UNL d   1      19.081  -2.711   3.105  0.00  0.00    -0.775 OA
ATOM     27  H   UNL d   1      18.760  -3.394   2.479  0.00  0.00     0.167 HD
ENDBRANCH  24  26
ENDBRANCH  20  24
ENDBRANCH  19  20
ENDBRANCH   3  19
TORSDOF 8
ENDMDL
MODEL 2
REMARK VINA RESULT:      -5.7      1.359      2.523
REMARK  8 active torsions:
REMARK  status: ('A' for Active; 'I' for Inactive)
REMARK    1  A    between atoms: O_4  and  C_14 
REMARK    2  A    between atoms: O_4  and  C_18 
REMARK    3  A    between atoms: O_5  and  C_17 
REMARK    4  A    between atoms: O_7  and  C_23 
REMARK    5  A    between atoms: N_8  and  CA_10 
REMARK    6  A    between atoms: C_9  and  CA_10 
REMARK    7  A    between atoms: C_9  and  C_11 
REMARK    8  A    between atoms: CA_10  and  C_17 
ROOT
ATOM      1  I   UNL d   1      12.938  -0.576   7.272  0.00  0.00    -0.042 I 
ATOM      2  I   UNL d   1      15.441  -6.110   6.668  0.00  0.00    -0.042 I 
ATOM      3  C   UNL d   1      16.595  -2.099   5.543  0.00  0.00    -0.053 A 
ATOM      4  C   UNL d   1      16.558  -3.470   5.739  0.00  0.00     0.028 A 
ATOM      5  C   UNL d   1      15.567  -1.279   5.978  0.00  0.00     0.028 A 
ATOM      6  C   UNL d   1      14.418  -3.224   6.833  0.00  0.00     0.109 A 
ATOM      7  C   UNL d   1      14.471  -1.846   6.628  0.00  0.00     0.042 A 
ATOM      8  C   UNL d   1      15.461  -4.036   6.389  0.00  0.00     0.042 A 
ENDROOT
BRANCH   6   9
ATOM      9  O   UNL d   1      13.345  -3.780   7.471  0.00  0.00    -0.308 OA
BRANCH   9  10
ATOM     10  C   UNL d   1      13.345  -3.765   8.853  0.00  0.00     0.077 A 
ATOM     11  C   UNL d   1      12.162  -3.999   9.533  0.00  0.00     0.058 A 
ATOM     12  C   UNL d   1      12.163  -3.984  10.927  0.00  0.00     0.042 A 
ATOM     13  I   UNL d   1      10.364  -4.339  11.930  0.00  0.00    -0.042 I 
ATOM     14  C   UNL d   1      13.348  -3.735  11.621  0.00  0.00     0.082 A 
ATOM     15  C   UNL d   1      14.531  -3.502  10.920  0.00  0.00     0.040 A 
ATOM     16  C   UNL d   1      14.529  -3.517   9.525  0.00  0.00     0.040 A 
BRANCH  14  17
ATOM     17  O   UNL d   1      13.392  -3.712  12.984  0.00  0.00    -0.359 OA
ATOM     18  H   UNL d   1      14.204  -3.263  13.271  0.00  0.00     0.217 HD
ENDBRANCH  14  17
ENDBRANCH   9  10
ENDBRANCH   6   9
BRANCH   3  19
ATOM     19  C   UNL d   1      17.783  -1.485   4.839  0.00  0.00     0.085 C 
BRANCH  19  20
ATOM     20  CA  UNL d   1      17.379  -0.560   3.681  0.00  0.00     0.318 C 
BRANCH  20  21
ATOM     21  N   UNL d   1      17.872  -1.105   2.418  0.00  0.00     0.093 N 
ATOM     22  H1  UNL d   1      18.839  -1.407   2.529  0.00  0.00     0.314 HD
ATOM     23  H2  UNL d   1      17.892  -0.371   1.709  0.00  0.00     0.314 HD
ENDBRANCH  20  21
BRANCH  20  24
ATOM     24  C   UNL d   1      17.981   0.827   3.821  0.00  0.00     0.174 C 
ATOM     25  OXT UNL d   1      17.340   1.870   3.835  0.00  0.00    -0.648 OA
BRANCH  24  26
ATOM     26  O   UNL d   1      19.332   0.792   3.968  0.00  0.00    -0.775 OA
ATOM     27  H   UNL d   1      19.611   0.095   4.599  0.00  0.00     0.167 HD
ENDBRANCH  24  26
ENDBRANCH  20  24
ENDBRANCH  19  20
ENDBRANCH   3  19
TORSDOF 8
ENDMDL
MODEL 3
REMARK VINA RESULT:      -5.6     11.404     12.573
REMARK  8 active torsions:
REMARK  status: ('A' for Active; 'I' for Inactive)
REMARK    1  A    between atoms: O_4  and  C_14 
REMARK    2  A    between atoms: O_4  and  C_18 
REMARK    3  A    between atoms: O_5  and  C_17 
REMARK    4  A    between atoms: O_7  and  C_23 
REMARK    5  A    between atoms: N_8  and  CA_10 
REMARK    6  A    between atoms: C_9  and  CA_10 
REMARK    7  A    between atoms: C_9  and  C_11 
REMARK    8  A    between atoms: CA_10  and  C_17 
ROOT
ATOM      1  I   UNL d   1       4.032   6.404   8.182  0.00  0.00    -0.042 I 
ATOM      2  I   UNL d   1       8.007   3.505  11.793  0.00  0.00    -0.042 I 
ATOM      3  C   UNL d   1       8.322   6.503   8.695  0.00  0.00    -0.053 A 
ATOM      4  C   UNL d   1       8.600   5.586   9.696  0.00  0.00     0.028 A 
ATOM      5  C   UNL d   1       7.026   6.734   8.266  0.00  0.00     0.028 A 
ATOM      6  C   UNL d   1       6.238   5.101   9.863  0.00  0.00     0.109 A 
ATOM      7  C   UNL d   1       5.977   6.028   8.854  0.00  0.00     0.042 A 
ATOM      8  C   UNL d   1       7.550   4.880  10.284  0.00  0.00     0.042 A 
ENDROOT
BRANCH   6   9
ATOM      9  O   UNL d   1       5.211   4.411  10.440  0.00  0.00    -0.308 OA
BRANCH   9  10
ATOM     10  C   UNL d   1       4.567   5.001  11.513  0.00  0.00     0.077 A 
ATOM     11  C   UNL d   1       3.542   4.318  12.145  0.00  0.00     0.058 A 
ATOM     12  C   UNL d   1       2.894   4.914  13.226  0.00  0.00     0.042 A 
ATOM     13  I   UNL d   1       1.349   3.865  14.165  0.00  0.00    -0.042 I 
ATOM     14  C   UNL d   1       3.280   6.183  13.659  0.00  0.00     0.082 A 
ATOM     15  C   UNL d   1       4.315   6.856  13.010  0.00  0.00     0.040 A 
ATOM     16  C   UNL d   1       4.963   6.259  11.928  0.00  0.00     0.040 A 
BRANCH  14  17
ATOM     17  O   UNL d   1       2.672   6.800  14.712  0.00  0.00    -0.359 OA
ATOM     18  H   UNL d   1       2.632   7.757  14.544  0.00  0.00     0.217 HD
ENDBRANCH  14  17
ENDBRANCH   9  10
ENDBRANCH   6   9
BRANCH   3  19
ATOM     19  C   UNL d   1       9.459   7.268   8.058  0.00  0.00     0.085 C 
BRANCH  19  20
ATOM     20  CA  UNL d   1       9.949   6.630   6.748  0.00  0.00     0.318 C 
BRANCH  20  21
ATOM     21  N   UNL d   1      11.388   6.838   6.605  0.00  0.00     0.093 N 
ATOM     22  H1  UNL d   1      11.707   6.427   5.729  0.00  0.00     0.314 HD
ATOM     23  H2  UNL d   1      11.884   6.337   7.343  0.00  0.00     0.314 HD
ENDBRANCH  20  21
BRANCH  20  24
ATOM     24  C   UNL d   1       9.295   7.256   5.529  0.00  0.00     0.174 C 
ATOM     25  OXT UNL d   1       8.267   6.852   5.001  0.00  0.00    -0.648 OA
BRANCH  24  26
ATOM     26  O   UNL d   1       9.962   8.357   5.093  0.00  0.00    -0.775 OA
ATOM     27  H   UNL d   1      10.796   8.121   4.635  0.00  0.00     0.167 HD
ENDBRANCH  24  26
ENDBRANCH  20  24
ENDBRANCH  19  20
ENDBRANCH   3  19
TORSDOF 8
ENDMDL
MODEL 4
REMARK VINA RESULT:      -5.5     11.261     12.301
REMARK  8 active torsions:
REMARK  status: ('A' for Active; 'I' for Inactive)
REMARK    1  A    between atoms: O_4  and  C_14 
REMARK    2  A    between atoms: O_4  and  C_18 
REMARK    3  A    between atoms: O_5  and  C_17 
REMARK    4  A    between atoms: O_7  and  C_23 
REMARK    5  A    between atoms: N_8  and  CA_10 
REMARK    6  A    between atoms: C_9  and  CA_10 
REMARK    7  A    between atoms: C_9  and  C_11 
REMARK    8  A    between atoms: CA_10  and  C_17 
ROOT
ATOM      1  I   UNL d   1       8.161   3.338  11.547  0.00  0.00    -0.042 I 
ATOM      2  I   UNL d   1       4.178   6.473   8.148  0.00  0.00    -0.042 I 
ATOM      3  C   UNL d   1       8.482   6.438   8.553  0.00  0.00    -0.053 A 
ATOM      4  C   UNL d   1       7.181   6.720   8.166  0.00  0.00     0.028 A 
ATOM      5  C   UNL d   1       8.758   5.478   9.512  0.00  0.00     0.028 A 
ATOM      6  C   UNL d   1       6.390   5.052   9.725  0.00  0.00     0.109 A 
ATOM      7  C   UNL d   1       7.705   4.781  10.102  0.00  0.00     0.042 A 
ATOM      8  C   UNL d   1       6.128   6.021   8.757  0.00  0.00     0.042 A 
ENDROOT
BRANCH   6   9
ATOM      9  O   UNL d   1       5.358   4.367  10.303  0.00  0.00    -0.308 OA
BRANCH   9  10
ATOM     10  C   UNL d   1       4.746   4.943  11.401  0.00  0.00     0.077 A 
ATOM     11  C   UNL d   1       3.659   4.309  11.978  0.00  0.00     0.058 A 
ATOM     12  C   UNL d   1       3.042   4.890  13.086  0.00  0.00     0.042 A 
ATOM     13  I   UNL d   1       1.403   3.915  13.940  0.00  0.00    -0.042 I 
ATOM     14  C   UNL d   1       3.521   6.096  13.599  0.00  0.00     0.082 A 
ATOM     15  C   UNL d   1       4.617   6.720  13.005  0.00  0.00     0.040 A 
ATOM     16  C   UNL d   1       5.234   6.138  11.897  0.00  0.00     0.040 A 
BRANCH  14  17
ATOM     17  O   UNL d   1       2.946   6.696  14.680  0.00  0.00    -0.359 OA
ATOM     18  H   UNL d   1       2.952   6.078  15.431  0.00  0.00     0.217 HD
ENDBRANCH  14  17
ENDBRANCH   9  10
ENDBRANCH   6   9
BRANCH   3  19
ATOM     19  C   UNL d   1       9.622   7.195   7.912  0.00  0.00     0.085 C 
BRANCH  19  20
ATOM     20  CA  UNL d   1      10.041   6.608   6.555  0.00  0.00     0.318 C 
BRANCH  20  21
ATOM     21  N   UNL d   1      11.485   6.749   6.380  0.00  0.00     0.093 N 
ATOM     22  H1  UNL d   1      11.750   7.726   6.496  0.00  0.00     0.314 HD
ATOM     23  H2  UNL d   1      11.743   6.503   5.424  0.00  0.00     0.314 HD
ENDBRANCH  20  21
BRANCH  20  24
ATOM     24  C   UNL d   1       9.389   7.335   5.393  0.00  0.00     0.174 C 
ATOM     25  OXT UNL d   1       8.367   6.972   4.825  0.00  0.00    -0.648 OA
BRANCH  24  26
ATOM     26  O   UNL d   1      10.049   8.476   5.061  0.00  0.00    -0.775 OA
ATOM     27  H   UNL d   1      10.530   8.385   4.211  0.00  0.00     0.167 HD
ENDBRANCH  24  26
ENDBRANCH  20  24
ENDBRANCH  19  20
ENDBRANCH   3  19
TORSDOF 8
ENDMDL
MODEL 5
REMARK VINA RESULT:      -5.2     11.306     14.133
REMARK  8 active torsions:
REMARK  status: ('A' for Active; 'I' for Inactive)
REMARK    1  A    between atoms: O_4  and  C_14 
REMARK    2  A    between atoms: O_4  and  C_18 
REMARK    3  A    between atoms: O_5  and  C_17 
REMARK    4  A    between atoms: O_7  and  C_23 
REMARK    5  A    between atoms: N_8  and  CA_10 
REMARK    6  A    between atoms: C_9  and  CA_10 
REMARK    7  A    between atoms: C_9  and  C_11 
REMARK    8  A    between atoms: CA_10  and  C_17 
ROOT
ATOM      1  I   UNL d   1       8.118   3.100  10.964  0.00  0.00    -0.042 I 
ATOM      2  I   UNL d   1       4.753   6.859   7.529  0.00  0.00    -0.042 I 
ATOM      3  C   UNL d   1       5.148   6.134  11.773  0.00  0.00    -0.053 A 
ATOM      4  C   UNL d   1       4.767   6.623  10.533  0.00  0.00     0.028 A 
ATOM      5  C   UNL d   1       6.099   5.135  11.893  0.00  0.00     0.028 A 
ATOM      6  C   UNL d   1       6.313   5.089   9.487  0.00  0.00     0.109 A 
ATOM      7  C   UNL d   1       6.685   4.608  10.742  0.00  0.00     0.042 A 
ATOM      8  C   UNL d   1       5.353   6.096   9.383  0.00  0.00     0.042 A 
ENDROOT
BRANCH   6   9
ATOM      9  O   UNL d   1       6.887   4.574   8.360  0.00  0.00    -0.308 OA
BRANCH   9  10
ATOM     10  C   UNL d   1       8.026   5.196   7.882  0.00  0.00     0.077 A 
ATOM     11  C   UNL d   1       8.542   4.814   6.656  0.00  0.00     0.058 A 
ATOM     12  C   UNL d   1       9.690   5.442   6.175  0.00  0.00     0.042 A 
ATOM     13  I   UNL d   1      10.451   4.847   4.321  0.00  0.00    -0.042 I 
ATOM     14  C   UNL d   1      10.305   6.444   6.927  0.00  0.00     0.082 A 
ATOM     15  C   UNL d   1       9.771   6.817   8.160  0.00  0.00     0.040 A 
ATOM     16  C   UNL d   1       8.622   6.188   8.641  0.00  0.00     0.040 A 
BRANCH  14  17
ATOM     17  O   UNL d   1      11.428   7.082   6.492  0.00  0.00    -0.359 OA
ATOM     18  H   UNL d   1      12.098   6.422   6.246  0.00  0.00     0.217 HD
ENDBRANCH  14  17
ENDBRANCH   9  10
ENDBRANCH   6   9
BRANCH   3  19
ATOM     19  C   UNL d   1       4.513   6.705  13.019  0.00  0.00     0.085 C 
BRANCH  19  20
ATOM     20  CA  UNL d   1       3.165   6.049  13.357  0.00  0.00     0.318 C 
BRANCH  20  21
ATOM     21  N   UNL d   1       2.603   6.664  14.558  0.00  0.00     0.093 N 
ATOM     22  H1  UNL d   1       1.601   6.802  14.434  0.00  0.00     0.314 HD
ATOM     23  H2  UNL d   1       2.998   7.596  14.685  0.00  0.00     0.314 HD
ENDBRANCH  20  21
BRANCH  20  24
ATOM     24  C   UNL d   1       3.309   4.567  13.654  0.00  0.00     0.174 C 
ATOM     25  OXT UNL d   1       2.848   3.667  12.964  0.00  0.00    -0.648 OA
BRANCH  24  26
ATOM     26  O   UNL d   1       4.049   4.333  14.769  0.00  0.00    -0.775 OA
ATOM     27  H   UNL d   1       3.508   3.951  15.493  0.00  0.00     0.167 HD
ENDBRANCH  24  26
ENDBRANCH  20  24
ENDBRANCH  19  20
ENDBRANCH   3  19
TORSDOF 8
ENDMDL
MODEL 6
REMARK VINA RESULT:      -5.2      3.357      4.280
REMARK  8 active torsions:
REMARK  status: ('A' for Active; 'I' for Inactive)
REMARK    1  A    between atoms: O_4  and  C_14 
REMARK    2  A    between atoms: O_4  and  C_18 
REMARK    3  A    between atoms: O_5  and  C_17 
REMARK    4  A    between atoms: O_7  and  C_23 
REMARK    5  A    between atoms: N_8  and  CA_10 
REMARK    6  A    between atoms: C_9  and  CA_10 
REMARK    7  A    between atoms: C_9  and  C_11 
REMARK    8  A    between atoms: CA_10  and  C_17 
ROOT
ATOM      1  I   UNL d   1      14.509  -4.331   9.206  0.00  0.00    -0.042 I 
ATOM      2  I   UNL d   1      12.984  -5.016   3.337  0.00  0.00    -0.042 I 
ATOM      3  C   UNL d   1      15.343  -2.159   5.564  0.00  0.00    -0.053 A 
ATOM      4  C   UNL d   1      14.688  -2.852   4.558  0.00  0.00     0.028 A 
ATOM      5  C   UNL d   1      15.292  -2.580   6.882  0.00  0.00     0.028 A 
ATOM      6  C   UNL d   1      13.898  -4.434   6.205  0.00  0.00     0.109 A 
ATOM      7  C   UNL d   1      14.564  -3.725   7.205  0.00  0.00     0.042 A 
ATOM      8  C   UNL d   1      13.960  -3.997   4.882  0.00  0.00     0.042 A 
ENDROOT
BRANCH   6   9
ATOM      9  O   UNL d   1      13.185  -5.556   6.521  0.00  0.00    -0.308 OA
BRANCH   9  10
ATOM     10  C   UNL d   1      13.891  -6.732   6.697  0.00  0.00     0.077 A 
ATOM     11  C   UNL d   1      13.345  -7.738   7.476  0.00  0.00     0.058 A 
ATOM     12  C   UNL d   1      14.057  -8.923   7.654  0.00  0.00     0.042 A 
ATOM     13  I   UNL d   1      13.213 -10.427   8.834  0.00  0.00    -0.042 I 
ATOM     14  C   UNL d   1      15.305  -9.085   7.050  0.00  0.00     0.082 A 
ATOM     15  C   UNL d   1      15.839  -8.061   6.268  0.00  0.00     0.040 A 
ATOM     16  C   UNL d   1      15.126  -6.875   6.091  0.00  0.00     0.040 A 
BRANCH  14  17
ATOM     17  O   UNL d   1      16.033 -10.228   7.198  0.00  0.00    -0.359 OA
ATOM     18  H   UNL d   1      16.980 -10.008   7.202  0.00  0.00     0.217 HD
ENDBRANCH  14  17
ENDBRANCH   9  10
ENDBRANCH   6   9
BRANCH   3  19
ATOM     19  C   UNL d   1      16.132  -0.919   5.213  0.00  0.00     0.085 C 
BRANCH  19  20
ATOM     20  CA  UNL d   1      17.638  -1.190   5.070  0.00  0.00     0.318 C 
BRANCH  20  21
ATOM     21  N   UNL d   1      18.386   0.044   5.299  0.00  0.00     0.093 N 
ATOM     22  H1  UNL d   1      18.534   0.525   4.413  0.00  0.00     0.314 HD
ATOM     23  H2  UNL d   1      19.317  -0.177   5.653  0.00  0.00     0.314 HD
ENDBRANCH  20  21
BRANCH  20  24
ATOM     24  C   UNL d   1      18.002  -1.666   3.675  0.00  0.00     0.174 C 
ATOM     25  OXT UNL d   1      17.829  -1.023   2.647  0.00  0.00    -0.648 OA
BRANCH  24  26
ATOM     26  O   UNL d   1      18.586  -2.893   3.684  0.00  0.00    -0.775 OA
ATOM     27  H   UNL d   1      18.003  -3.571   4.087  0.00  0.00     0.167 HD
ENDBRANCH  24  26
ENDBRANCH  20  24
ENDBRANCH  19  20
ENDBRANCH   3  19
TORSDOF 8
ENDMDL
MODEL 7
REMARK VINA RESULT:      -5.1      3.243      3.901
REMARK  8 active torsions:
REMARK  status: ('A' for Active; 'I' for Inactive)
REMARK    1  A    between atoms: O_4  and  C_14 
REMARK    2  A    between atoms: O_4  and  C_18 
REMARK    3  A    between atoms: O_5  and  C_17 
REMARK    4  A    between atoms: O_7  and  C_23 
REMARK    5  A    between atoms: N_8  and  CA_10 
REMARK    6  A    between atoms: C_9  and  CA_10 
REMARK    7  A    between atoms: C_9  and  C_11 
REMARK    8  A    between atoms: CA_10  and  C_17 
ROOT
ATOM      1  I   UNL d   1      15.217  -4.577   3.112  0.00  0.00    -0.042 I 
ATOM      2  I   UNL d   1      13.040  -2.042   8.220  0.00  0.00    -0.042 I 
ATOM      3  C   UNL d   1      16.204  -1.070   5.439  0.00  0.00    -0.053 A 
ATOM      4  C   UNL d   1      15.313  -1.064   6.500  0.00  0.00     0.028 A 
ATOM      5  C   UNL d   1      16.175  -2.068   4.478  0.00  0.00     0.028 A 
ATOM      6  C   UNL d   1      14.327  -3.097   5.645  0.00  0.00     0.109 A 
ATOM      7  C   UNL d   1      15.230  -3.088   4.582  0.00  0.00     0.042 A 
ATOM      8  C   UNL d   1      14.369  -2.085   6.604  0.00  0.00     0.042 A 
ENDROOT
BRANCH   6   9
ATOM      9  O   UNL d   1      13.401  -4.096   5.746  0.00  0.00    -0.308 OA
BRANCH   9  10
ATOM     10  C   UNL d   1      13.833  -5.323   6.217  0.00  0.00     0.077 A 
ATOM     11  C   UNL d   1      14.932  -5.375   7.057  0.00  0.00     0.058 A 
ATOM     12  C   UNL d   1      15.368  -6.612   7.532  0.00  0.00     0.042 A 
ATOM     13  I   UNL d   1      17.030  -6.667   8.797  0.00  0.00    -0.042 I 
ATOM     14  C   UNL d   1      14.697  -7.778   7.159  0.00  0.00     0.082 A 
ATOM     15  C   UNL d   1      13.591  -7.706   6.313  0.00  0.00     0.040 A 
ATOM     16  C   UNL d   1      13.156  -6.468   5.839  0.00  0.00     0.040 A 
BRANCH  14  17
ATOM     17  O   UNL d   1      15.090  -9.006   7.602  0.00  0.00    -0.359 OA
ATOM     18  H   UNL d   1      15.122  -9.002   8.573  0.00  0.00     0.217 HD
ENDBRANCH  14  17
ENDBRANCH   9  10
ENDBRANCH   6   9
BRANCH   3  19
ATOM     19  C   UNL d   1      17.227   0.036   5.326  0.00  0.00     0.085 C 
BRANCH  19  20
ATOM     20  CA  UNL d   1      18.503  -0.403   4.592  0.00  0.00     0.318 C 
BRANCH  20  21
ATOM     21  N   UNL d   1      19.652  -0.293   5.488  0.00  0.00     0.093 N 
ATOM     22  H1  UNL d   1      20.032  -1.220   5.673  0.00  0.00     0.314 HD
ATOM     23  H2  UNL d   1      19.351   0.069   6.393  0.00  0.00     0.314 HD
ENDBRANCH  20  21
BRANCH  20  24
ATOM     24  C   UNL d   1      18.802   0.476   3.390  0.00  0.00     0.174 C 
ATOM     25  OXT UNL d   1      19.829   1.126   3.237  0.00  0.00    -0.648 OA
BRANCH  24  26
ATOM     26  O   UNL d   1      17.808   0.442   2.465  0.00  0.00    -0.775 OA
ATOM     27  H   UNL d   1      17.228  -0.340   2.581  0.00  0.00     0.167 HD
ENDBRANCH  24  26
ENDBRANCH  20  24
ENDBRANCH  19  20
ENDBRANCH   3  19
TORSDOF 8
ENDMDL
MODEL 8
REMARK VINA RESULT:      -5.0     13.465     14.998
REMARK  8 active torsions:
REMARK  status: ('A' for Active; 'I' for Inactive)
REMARK    1  A    between atoms: O_4  and  C_14 
REMARK    2  A    between atoms: O_4  and  C_18 
REMARK    3  A    between atoms: O_5  and  C_17 
REMARK    4  A    between atoms: O_7  and  C_23 
REMARK    5  A    between atoms: N_8  and  CA_10 
REMARK    6  A    between atoms: C_9  and  CA_10 
REMARK    7  A    between atoms: C_9  and  C_11 
REMARK    8  A    between atoms: CA_10  and  C_17 
ROOT
ATOM      1  I   UNL d   1       4.208   4.517   7.546  0.00  0.00    -0.042 I 
ATOM      2  I   UNL d   1       3.436   6.288  13.336  0.00  0.00    -0.042 I 
ATOM      3  C   UNL d   1       2.273   7.863   9.482  0.00  0.00    -0.053 A 
ATOM      4  C   UNL d   1       2.463   7.669  10.840  0.00  0.00     0.028 A 
ATOM      5  C   UNL d   1       2.769   6.968   8.548  0.00  0.00     0.028 A 
ATOM      6  C   UNL d   1       3.675   5.637  10.349  0.00  0.00     0.109 A 
ATOM      7  C   UNL d   1       3.475   5.847   8.985  0.00  0.00     0.042 A 
ATOM      8  C   UNL d   1       3.169   6.548  11.277  0.00  0.00     0.042 A 
ENDROOT
BRANCH   6   9
ATOM      9  O   UNL d   1       4.366   4.539  10.778  0.00  0.00    -0.308 OA
BRANCH   9  10
ATOM     10  C   UNL d   1       5.743   4.641  10.856  0.00  0.00     0.077 A 
ATOM     11  C   UNL d   1       6.505   3.486  10.905  0.00  0.00     0.058 A 
ATOM     12  C   UNL d   1       7.893   3.590  10.984  0.00  0.00     0.042 A 
ATOM     13  I   UNL d   1       9.023   1.833  11.059  0.00  0.00    -0.042 I 
ATOM     14  C   UNL d   1       8.498   4.847  11.012  0.00  0.00     0.082 A 
ATOM     15  C   UNL d   1       7.715   6.000  10.961  0.00  0.00     0.040 A 
ATOM     16  C   UNL d   1       6.326   5.895  10.882  0.00  0.00     0.040 A 
BRANCH  14  17
ATOM     17  O   UNL d   1       9.852   4.992  11.089  0.00  0.00    -0.359 OA
ATOM     18  H   UNL d   1      10.278   4.332  10.516  0.00  0.00     0.217 HD
ENDBRANCH  14  17
ENDBRANCH   9  10
ENDBRANCH   6   9
BRANCH   3  19
ATOM     19  C   UNL d   1       1.508   9.077   9.009  0.00  0.00     0.085 C 
BRANCH  19  20
ATOM     20  CA  UNL d   1       2.420  10.170   8.430  0.00  0.00     0.318 C 
BRANCH  20  21
ATOM     21  N   UNL d   1       1.866  11.488   8.733  0.00  0.00     0.093 N 
ATOM     22  H1  UNL d   1       2.046  12.122   7.956  0.00  0.00     0.314 HD
ATOM     23  H2  UNL d   1       2.350  11.889   9.537  0.00  0.00     0.314 HD
ENDBRANCH  20  21
BRANCH  20  24
ATOM     24  C   UNL d   1       2.529  10.082   6.918  0.00  0.00     0.174 C 
ATOM     25  OXT UNL d   1       1.648  10.406   6.132  0.00  0.00    -0.648 OA
BRANCH  24  26
ATOM     26  O   UNL d   1       3.745   9.629   6.513  0.00  0.00    -0.775 OA
ATOM     27  H   UNL d   1       4.241   9.209   7.248  0.00  0.00     0.167 HD
ENDBRANCH  24  26
ENDBRANCH  20  24
ENDBRANCH  19  20
ENDBRANCH   3  19
TORSDOF 8
ENDMDL
MODEL 9
REMARK VINA RESULT:      -5.0     12.432     13.938
REMARK  8 active torsions:
REMARK  status: ('A' for Active; 'I' for Inactive)
REMARK    1  A    between atoms: O_4  and  C_14 
REMARK    2  A    between atoms: O_4  and  C_18 
REMARK    3  A    between atoms: O_5  and  C_17 
REMARK    4  A    between atoms: O_7  and  C_23 
REMARK    5  A    between atoms: N_8  and  CA_10 
REMARK    6  A    between atoms: C_9  and  CA_10 
REMARK    7  A    between atoms: C_9  and  C_11 
REMARK    8  A    between atoms: CA_10  and  C_17 
ROOT
ATOM      1  I   UNL d   1       8.268   6.073   8.934  0.00  0.00    -0.042 I 
ATOM      2  I   UNL d   1       3.703   6.184  12.984  0.00  0.00    -0.042 I 
ATOM      3  C   UNL d   1       4.028   6.886   8.731  0.00  0.00    -0.053 A 
ATOM      4  C   UNL d   1       3.557   6.741  10.026  0.00  0.00     0.028 A 
ATOM      5  C   UNL d   1       5.365   6.696   8.423  0.00  0.00     0.028 A 
ATOM      6  C   UNL d   1       5.800   6.202  10.747  0.00  0.00     0.109 A 
ATOM      7  C   UNL d   1       6.257   6.352   9.438  0.00  0.00     0.042 A 
ATOM      8  C   UNL d   1       4.450   6.396  11.041  0.00  0.00     0.042 A 
ENDROOT
BRANCH   6   9
ATOM      9  O   UNL d   1       6.673   5.863  11.741  0.00  0.00    -0.308 OA
BRANCH   9  10
ATOM     10  C   UNL d   1       6.983   4.524  11.891  0.00  0.00     0.077 A 
ATOM     11  C   UNL d   1       6.011   3.572  11.635  0.00  0.00     0.058 A 
ATOM     12  C   UNL d   1       6.324   2.222  11.786  0.00  0.00     0.042 A 
ATOM     13  I   UNL d   1       4.840   0.803  11.395  0.00  0.00    -0.042 I 
ATOM     14  C   UNL d   1       7.605   1.844  12.191  0.00  0.00     0.082 A 
ATOM     15  C   UNL d   1       8.572   2.816  12.444  0.00  0.00     0.040 A 
ATOM     16  C   UNL d   1       8.258   4.167  12.292  0.00  0.00     0.040 A 
BRANCH  14  17
ATOM     17  O   UNL d   1       7.951   0.534  12.350  0.00  0.00    -0.359 OA
ATOM     18  H   UNL d   1       8.727   0.476  12.934  0.00  0.00     0.217 HD
ENDBRANCH  14  17
ENDBRANCH   9  10
ENDBRANCH   6   9
BRANCH   3  19
ATOM     19  C   UNL d   1       3.061   7.259   7.631  0.00  0.00     0.085 C 
BRANCH  19  20
ATOM     20  CA  UNL d   1       2.375   8.612   7.873  0.00  0.00     0.318 C 
BRANCH  20  21
ATOM     21  N   UNL d   1       0.924   8.435   7.890  0.00  0.00     0.093 N 
ATOM     22  H1  UNL d   1       0.647   7.806   7.138  0.00  0.00     0.314 HD
ATOM     23  H2  UNL d   1       0.465   9.324   7.692  0.00  0.00     0.314 HD
ENDBRANCH  20  21
BRANCH  20  24
ATOM     24  C   UNL d   1       2.677   9.611   6.770  0.00  0.00     0.174 C 
ATOM     25  OXT UNL d   1       1.881  10.430   6.329  0.00  0.00    -0.648 OA
BRANCH  24  26
ATOM     26  O   UNL d   1       3.962   9.528   6.335  0.00  0.00    -0.775 OA
ATOM     27  H   UNL d   1       4.104  10.045   5.514  0.00  0.00     0.167 HD
ENDBRANCH  24  26
ENDBRANCH  20  24
ENDBRANCH  19  20
ENDBRANCH   3  19
TORSDOF 8
ENDMDL
