MODEL 1
REMARK VINA RESULT:      -0.0      0.000      0.000
REMARK  1 active torsions:
REMARK  status: ('A' for Active; 'I' for Inactive)
REMARK    1  A    between atoms: O_1  and  C_13 
ROOT
ATOM      1  O   UNL d   1       8.307  11.115  13.372  0.00  0.00    -0.298 OA
ATOM      2  C   UNL d   1      12.865  10.104  17.758  0.00  0.00    -0.005 C 
ATOM      3  C   UNL d   1      12.274   9.128  16.692  0.00  0.00    -0.002 C 
ATOM      4  C   UNL d   1      13.714   9.294  18.743  0.00  0.00     0.001 C 
ATOM      5  C   UNL d   1      14.880   8.554  18.059  0.00  0.00    -0.014 C 
ATOM      6  C   UNL d   1      11.337   9.862  15.662  0.00  0.00    -0.036 C 
ATOM      7  C   UNL d   1      10.246  10.652  16.453  0.00  0.00     0.001 C 
ATOM      8  C   UNL d   1      13.374   8.247  16.037  0.00  0.00     0.007 C 
ATOM      9  C   UNL d   1      14.286   7.549  17.062  0.00  0.00     0.012 C 
ATOM     10  C   UNL d   1      11.745  10.862  18.483  0.00  0.00     0.006 C 
ATOM     11  C   UNL d   1      14.385  10.010  19.913  0.00  0.00     0.008 C 
ATOM     12  C   UNL d   1      15.536   7.919  19.299  0.00  0.00     0.126 C 
ATOM     13  C   UNL d   1      10.834  11.599  17.509  0.00  0.00     0.006 C 
ATOM     14  C   UNL d   1      15.492   9.037  20.359  0.00  0.00     0.033 C 
ATOM     15  C   UNL d   1      10.625   8.810  14.751  0.00  0.00     0.017 C 
ATOM     16  C   UNL d   1      15.889   9.475  17.327  0.00  0.00     0.018 C 
ATOM     17  C   UNL d   1      12.159  10.811  14.750  0.00  0.00     0.016 C 
ATOM     18  C   UNL d   1       9.293  11.426  15.529  0.00  0.00     0.083 C 
ATOM     19  C   UNL d   1       9.177   9.127  14.376  0.00  0.00     0.079 C 
ATOM     20  C   UNL d   1       8.899  10.606  14.324  0.00  0.00     0.127 C 
ENDROOT
BRANCH  12  21
ATOM     21  O   UNL d   1      16.859   7.476  19.059  0.00  0.00    -0.395 OA
ATOM     22  H   UNL d   1      17.007   6.648  19.544  0.00  0.00     0.210 HD
ENDBRANCH  12  21
TORSDOF 1
ENDMDL
MODEL 2
REMARK VINA RESULT:      -0.0      2.413      2.839
REMARK  1 active torsions:
REMARK  status: ('A' for Active; 'I' for Inactive)
REMARK    1  A    between atoms: O_1  and  C_13 
ROOT
ATOM      1  O   UNL d   1      12.098  10.014  10.225  0.00  0.00    -0.298 OA
ATOM      2  C   UNL d   1      14.320  10.562  16.209  0.00  0.00    -0.005 C 
ATOM      3  C   UNL d   1      13.422   9.452  15.577  0.00  0.00    -0.002 C 
ATOM      4  C   UNL d   1      14.324  10.378  17.730  0.00  0.00     0.001 C 
ATOM      5  C   UNL d   1      14.868   9.004  18.165  0.00  0.00    -0.014 C 
ATOM      6  C   UNL d   1      13.310   9.589  14.012  0.00  0.00    -0.036 C 
ATOM      7  C   UNL d   1      12.839  11.038  13.671  0.00  0.00     0.001 C 
ATOM      8  C   UNL d   1      13.824   8.032  16.064  0.00  0.00     0.007 C 
ATOM      9  C   UNL d   1      13.939   7.923  17.596  0.00  0.00     0.012 C 
ATOM     10  C   UNL d   1      13.816  11.957  15.818  0.00  0.00     0.006 C 
ATOM     11  C   UNL d   1      15.106  11.362  18.597  0.00  0.00     0.008 C 
ATOM     12  C   UNL d   1      14.793   9.177  19.694  0.00  0.00     0.126 C 
ATOM     13  C   UNL d   1      13.717  12.124  14.307  0.00  0.00     0.006 C 
ATOM     14  C   UNL d   1      15.290  10.617  19.932  0.00  0.00     0.033 C 
ATOM     15  C   UNL d   1      12.249   8.580  13.467  0.00  0.00     0.017 C 
ATOM     16  C   UNL d   1      16.327   8.719  17.726  0.00  0.00     0.018 C 
ATOM     17  C   UNL d   1      14.670   9.272  13.334  0.00  0.00     0.016 C 
ATOM     18  C   UNL d   1      12.723  11.278  12.158  0.00  0.00     0.083 C 
ATOM     19  C   UNL d   1      11.386   9.083  12.310  0.00  0.00     0.079 C 
ATOM     20  C   UNL d   1      12.094  10.099  11.453  0.00  0.00     0.127 C 
ENDROOT
BRANCH  12  21
ATOM     21  O   UNL d   1      15.575   8.230  20.396  0.00  0.00    -0.395 OA
ATOM     22  H   UNL d   1      15.005   7.753  21.022  0.00  0.00     0.210 HD
ENDBRANCH  12  21
TORSDOF 1
ENDMDL
MODEL 3
REMARK VINA RESULT:       0.0     23.429     25.394
REMARK  1 active torsions:
REMARK  status: ('A' for Active; 'I' for Inactive)
REMARK    1  A    between atoms: O_1  and  C_13 
ROOT
ATOM      1  O   UNL d   1       4.504  -1.860  -6.115  0.00  0.00    -0.298 OA
ATOM      2  C   UNL d   1       1.086   2.773  -3.306  0.00  0.00    -0.005 C 
ATOM      3  C   UNL d   1       1.984   2.832  -4.581  0.00  0.00    -0.002 C 
ATOM      4  C   UNL d   1       0.729   4.206  -2.895  0.00  0.00     0.001 C 
ATOM      5  C   UNL d   1      -0.033   4.971  -3.994  0.00  0.00    -0.014 C 
ATOM      6  C   UNL d   1       2.451   1.404  -5.052  0.00  0.00    -0.036 C 
ATOM      7  C   UNL d   1       3.129   0.677  -3.847  0.00  0.00     0.001 C 
ATOM      8  C   UNL d   1       1.345   3.695  -5.704  0.00  0.00     0.007 C 
ATOM      9  C   UNL d   1       0.885   5.082  -5.220  0.00  0.00     0.012 C 
ATOM     10  C   UNL d   1       1.800   2.031  -2.170  0.00  0.00     0.006 C 
ATOM     11  C   UNL d   1      -0.124   4.433  -1.648  0.00  0.00     0.008 C 
ATOM     12  C   UNL d   1      -0.279   6.298  -3.252  0.00  0.00     0.126 C 
ATOM     13  C   UNL d   1       2.245   0.636  -2.593  0.00  0.00     0.006 C 
ATOM     14  C   UNL d   1      -0.670   5.861  -1.826  0.00  0.00     0.033 C 
ATOM     15  C   UNL d   1       3.500   1.542  -6.203  0.00  0.00     0.017 C 
ATOM     16  C   UNL d   1      -1.381   4.330  -4.413  0.00  0.00     0.018 C 
ATOM     17  C   UNL d   1       1.250   0.583  -5.592  0.00  0.00     0.016 C 
ATOM     18  C   UNL d   1       3.598  -0.742  -4.203  0.00  0.00     0.083 C 
ATOM     19  C   UNL d   1       4.642   0.526  -6.186  0.00  0.00     0.079 C 
ATOM     20  C   UNL d   1       4.245  -0.788  -5.567  0.00  0.00     0.127 C 
ENDROOT
BRANCH  12  21
ATOM     21  O   UNL d   1      -1.287   7.089  -3.853  0.00  0.00    -0.395 OA
ATOM     22  H   UNL d   1      -1.281   6.932  -4.812  0.00  0.00     0.210 HD
ENDBRANCH  12  21
TORSDOF 1
ENDMDL
MODEL 4
REMARK VINA RESULT:       0.0     27.781     31.620
REMARK  1 active torsions:
REMARK  status: ('A' for Active; 'I' for Inactive)
REMARK    1  A    between atoms: O_1  and  C_13 
ROOT
ATOM      1  O   UNL d   1       5.296   7.707  -8.998  0.00  0.00    -0.298 OA
ATOM      2  C   UNL d   1       3.460  12.464 -12.876  0.00  0.00    -0.005 C 
ATOM      3  C   UNL d   1       4.655  11.469 -13.016  0.00  0.00    -0.002 C 
ATOM      4  C   UNL d   1       3.632  13.582 -13.910  0.00  0.00     0.001 C 
ATOM      5  C   UNL d   1       3.662  13.057 -15.358  0.00  0.00    -0.014 C 
ATOM      6  C   UNL d   1       4.597  10.309 -11.954  0.00  0.00    -0.036 C 
ATOM      7  C   UNL d   1       4.478  10.941 -10.530  0.00  0.00     0.001 C 
ATOM      8  C   UNL d   1       4.838  10.983 -14.481  0.00  0.00     0.007 C 
ATOM      9  C   UNL d   1       4.879  12.133 -15.504  0.00  0.00     0.012 C 
ATOM     10  C   UNL d   1       3.387  13.031 -11.452  0.00  0.00     0.006 C 
ATOM     11  C   UNL d   1       2.606  14.712 -13.963  0.00  0.00     0.008 C 
ATOM     12  C   UNL d   1       3.777  14.396 -16.109  0.00  0.00     0.126 C 
ATOM     13  C   UNL d   1       3.310  11.928 -10.404  0.00  0.00     0.006 C 
ATOM     14  C   UNL d   1       2.805  15.329 -15.360  0.00  0.00     0.033 C 
ATOM     15  C   UNL d   1       5.912   9.468 -12.016  0.00  0.00     0.017 C 
ATOM     16  C   UNL d   1       2.382  12.300 -15.798  0.00  0.00     0.018 C 
ATOM     17  C   UNL d   1       3.404   9.359 -12.242  0.00  0.00     0.016 C 
ATOM     18  C   UNL d   1       4.389   9.880  -9.422  0.00  0.00     0.083 C 
ATOM     19  C   UNL d   1       6.446   8.967 -10.674  0.00  0.00     0.079 C 
ATOM     20  C   UNL d   1       5.355   8.744  -9.660  0.00  0.00     0.127 C 
ENDROOT
BRANCH  12  21
ATOM     21  O   UNL d   1       3.449  14.291 -17.482  0.00  0.00    -0.395 OA
ATOM     22  H   UNL d   1       3.997  14.915 -17.985  0.00  0.00     0.210 HD
ENDBRANCH  12  21
TORSDOF 1
ENDMDL
MODEL 5
REMARK VINA RESULT:       0.0      5.383      7.333
REMARK  1 active torsions:
REMARK  status: ('A' for Active; 'I' for Inactive)
REMARK    1  A    between atoms: O_1  and  C_13 
ROOT
ATOM      1  O   UNL d   1      11.901   0.687  11.674  0.00  0.00    -0.298 OA
ATOM      2  C   UNL d   1      14.403   3.217  17.001  0.00  0.00    -0.005 C 
ATOM      3  C   UNL d   1      14.133   3.881  15.614  0.00  0.00    -0.002 C 
ATOM      4  C   UNL d   1      15.273   4.165  17.834  0.00  0.00     0.001 C 
ATOM      5  C   UNL d   1      14.609   5.535  18.070  0.00  0.00    -0.014 C 
ATOM      6  C   UNL d   1      13.287   2.957  14.660  0.00  0.00    -0.036 C 
ATOM      7  C   UNL d   1      13.994   1.567  14.557  0.00  0.00     0.001 C 
ATOM      8  C   UNL d   1      13.575   5.325  15.759  0.00  0.00     0.007 C 
ATOM      9  C   UNL d   1      14.410   6.208  16.705  0.00  0.00     0.012 C 
ATOM     10  C   UNL d   1      15.077   1.851  16.828  0.00  0.00     0.006 C 
ATOM     11  C   UNL d   1      15.712   3.737  19.233  0.00  0.00     0.008 C 
ATOM     12  C   UNL d   1      15.685   6.186  18.958  0.00  0.00     0.126 C 
ATOM     13  C   UNL d   1      14.269   0.927  15.924  0.00  0.00     0.006 C 
ATOM     14  C   UNL d   1      16.111   5.057  19.917  0.00  0.00     0.033 C 
ATOM     15  C   UNL d   1      13.221   3.588  13.232  0.00  0.00     0.017 C 
ATOM     16  C   UNL d   1      13.254   5.475  18.821  0.00  0.00     0.018 C 
ATOM     17  C   UNL d   1      11.836   2.805  15.187  0.00  0.00     0.016 C 
ATOM     18  C   UNL d   1      13.226   0.582  13.663  0.00  0.00     0.083 C 
ATOM     19  C   UNL d   1      13.279   2.601  12.066  0.00  0.00     0.079 C 
ATOM     20  C   UNL d   1      12.706   1.253  12.414  0.00  0.00     0.127 C 
ENDROOT
BRANCH  12  21
ATOM     21  O   UNL d   1      15.210   7.319  19.661  0.00  0.00    -0.395 OA
ATOM     22  H   UNL d   1      14.265   7.199  19.852  0.00  0.00     0.210 HD
ENDBRANCH  12  21
TORSDOF 1
ENDMDL
MODEL 6
REMARK VINA RESULT:       0.0     24.846     26.439
REMARK  1 active torsions:
REMARK  status: ('A' for Active; 'I' for Inactive)
REMARK    1  A    between atoms: O_1  and  C_13 
ROOT
ATOM      1  O   UNL d   1       4.680  -3.266  -5.414  0.00  0.00    -0.298 OA
ATOM      2  C   UNL d   1      -0.204   0.143  -3.056  0.00  0.00    -0.005 C 
ATOM      3  C   UNL d   1       0.843   0.527  -4.148  0.00  0.00    -0.002 C 
ATOM      4  C   UNL d   1      -0.973   1.406  -2.653  0.00  0.00     0.001 C 
ATOM      5  C   UNL d   1      -1.717   2.056  -3.835  0.00  0.00    -0.014 C 
ATOM      6  C   UNL d   1       1.725  -0.700  -4.591  0.00  0.00    -0.036 C 
ATOM      7  C   UNL d   1       2.362  -1.342  -3.317  0.00  0.00     0.001 C 
ATOM      8  C   UNL d   1       0.195   1.304  -5.328  0.00  0.00     0.007 C 
ATOM      9  C   UNL d   1      -0.673   2.491  -4.873  0.00  0.00     0.012 C 
ATOM     10  C   UNL d   1       0.483  -0.500  -1.845  0.00  0.00     0.006 C 
ATOM     11  C   UNL d   1      -2.044   1.312  -1.568  0.00  0.00     0.008 C 
ATOM     12  C   UNL d   1      -2.407   3.214  -3.091  0.00  0.00     0.126 C 
ATOM     13  C   UNL d   1       1.329  -1.704  -2.242  0.00  0.00     0.006 C 
ATOM     14  C   UNL d   1      -2.898   2.575  -1.777  0.00  0.00     0.033 C 
ATOM     15  C   UNL d   1       2.876  -0.214  -5.531  0.00  0.00     0.017 C 
ATOM     16  C   UNL d   1      -2.773   1.146  -4.513  0.00  0.00     0.018 C 
ATOM     17  C   UNL d   1       0.874  -1.737  -5.370  0.00  0.00     0.016 C 
ATOM     18  C   UNL d   1       3.226  -2.569  -3.647  0.00  0.00     0.083 C 
ATOM     19  C   UNL d   1       4.220  -0.920  -5.356  0.00  0.00     0.079 C 
ATOM     20  C   UNL d   1       4.074  -2.339  -4.875  0.00  0.00     0.127 C 
ENDROOT
BRANCH  12  21
ATOM     21  O   UNL d   1      -3.472   3.787  -3.826  0.00  0.00    -0.395 OA
ATOM     22  H   UNL d   1      -3.273   3.720  -4.774  0.00  0.00     0.210 HD
ENDBRANCH  12  21
TORSDOF 1
ENDMDL
MODEL 7
REMARK VINA RESULT:       0.0     17.435     19.503
REMARK  1 active torsions:
REMARK  status: ('A' for Active; 'I' for Inactive)
REMARK    1  A    between atoms: O_1  and  C_13 
ROOT
ATOM      1  O   UNL d   1       2.277   1.033   4.751  0.00  0.00    -0.298 OA
ATOM      2  C   UNL d   1      -0.986  -2.212   9.207  0.00  0.00    -0.005 C 
ATOM      3  C   UNL d   1       0.362  -2.566   8.503  0.00  0.00    -0.002 C 
ATOM      4  C   UNL d   1      -1.477  -3.446   9.971  0.00  0.00     0.001 C 
ATOM      5  C   UNL d   1      -0.478  -3.923  11.042  0.00  0.00    -0.014 C 
ATOM      6  C   UNL d   1       0.922  -1.372   7.644  0.00  0.00    -0.036 C 
ATOM      7  C   UNL d   1      -0.192  -0.904   6.654  0.00  0.00     0.001 C 
ATOM      8  C   UNL d   1       1.392  -3.177   9.494  0.00  0.00     0.007 C 
ATOM      9  C   UNL d   1       0.820  -4.334  10.333  0.00  0.00     0.012 C 
ATOM     10  C   UNL d   1      -2.027  -1.741   8.184  0.00  0.00     0.006 C 
ATOM     11  C   UNL d   1      -2.802  -3.377  10.727  0.00  0.00     0.008 C 
ATOM     12  C   UNL d   1      -1.285  -5.093  11.636  0.00  0.00     0.126 C 
ATOM     13  C   UNL d   1      -1.518  -0.571   7.351  0.00  0.00     0.006 C 
ATOM     14  C   UNL d   1      -2.724  -4.547  11.723  0.00  0.00     0.033 C 
ATOM     15  C   UNL d   1       2.156  -1.851   6.813  0.00  0.00     0.017 C 
ATOM     16  C   UNL d   1      -0.159  -2.877  12.140  0.00  0.00     0.018 C 
ATOM     17  C   UNL d   1       1.380  -0.205   8.558  0.00  0.00     0.016 C 
ATOM     18  C   UNL d   1       0.255   0.281   5.784  0.00  0.00     0.083 C 
ATOM     19  C   UNL d   1       2.278  -1.267   5.406  0.00  0.00     0.079 C 
ATOM     20  C   UNL d   1       1.672   0.107   5.291  0.00  0.00     0.127 C 
ENDROOT
BRANCH  12  21
ATOM     21  O   UNL d   1      -0.805  -5.511  12.899  0.00  0.00    -0.395 OA
ATOM     22  H   UNL d   1      -1.466  -5.293  13.576  0.00  0.00     0.210 HD
ENDBRANCH  12  21
TORSDOF 1
ENDMDL
MODEL 8
REMARK VINA RESULT:       0.0     24.657     26.386
REMARK  1 active torsions:
REMARK  status: ('A' for Active; 'I' for Inactive)
REMARK    1  A    between atoms: O_1  and  C_13 
ROOT
ATOM      1  O   UNL d   1       2.757  -0.988  -5.523  0.00  0.00    -0.298 OA
ATOM      2  C   UNL d   1      -0.499   4.387  -4.281  0.00  0.00    -0.005 C 
ATOM      3  C   UNL d   1       0.655   4.135  -5.301  0.00  0.00    -0.002 C 
ATOM      4  C   UNL d   1      -0.730   5.898  -4.170  0.00  0.00     0.001 C 
ATOM      5  C   UNL d   1      -1.117   6.544  -5.514  0.00  0.00    -0.014 C 
ATOM      6  C   UNL d   1       1.006   2.607  -5.444  0.00  0.00    -0.036 C 
ATOM      7  C   UNL d   1       1.294   2.026  -4.023  0.00  0.00     0.001 C 
ATOM      8  C   UNL d   1       0.406   4.860  -6.653  0.00  0.00     0.007 C 
ATOM      9  C   UNL d   1       0.053   6.350  -6.489  0.00  0.00     0.012 C 
ATOM     10  C   UNL d   1      -0.163   3.775  -2.916  0.00  0.00     0.006 C 
ATOM     11  C   UNL d   1      -1.793   6.421  -3.206  0.00  0.00     0.008 C 
ATOM     12  C   UNL d   1      -1.329   7.995  -5.044  0.00  0.00     0.126 C 
ATOM     13  C   UNL d   1       0.161   2.289  -3.022  0.00  0.00     0.006 C 
ATOM     14  C   UNL d   1      -2.079   7.848  -3.705  0.00  0.00     0.033 C 
ATOM     15  C   UNL d   1       2.289   2.438  -6.320  0.00  0.00     0.017 C 
ATOM     16  C   UNL d   1      -2.418   5.988  -6.148  0.00  0.00     0.018 C 
ATOM     17  C   UNL d   1      -0.152   1.839  -6.135  0.00  0.00     0.016 C 
ATOM     18  C   UNL d   1       1.624   0.525  -4.057  0.00  0.00     0.083 C 
ATOM     19  C   UNL d   1       3.245   1.324  -5.891  0.00  0.00     0.079 C 
ATOM     20  C   UNL d   1       2.540   0.182  -5.208  0.00  0.00     0.127 C 
ENDROOT
BRANCH  12  21
ATOM     21  O   UNL d   1      -2.059   8.776  -5.971  0.00  0.00    -0.395 OA
ATOM     22  H   UNL d   1      -2.796   9.208  -5.509  0.00  0.00     0.210 HD
ENDBRANCH  12  21
TORSDOF 1
ENDMDL
MODEL 9
REMARK VINA RESULT:       0.0     27.137     29.975
REMARK  1 active torsions:
REMARK  status: ('A' for Active; 'I' for Inactive)
REMARK    1  A    between atoms: O_1  and  C_13 
ROOT
ATOM      1  O   UNL d   1       1.880   6.774  -7.800  0.00  0.00    -0.298 OA
ATOM      2  C   UNL d   1       1.766  12.629 -10.396  0.00  0.00    -0.005 C 
ATOM      3  C   UNL d   1       2.676  11.407 -10.735  0.00  0.00    -0.002 C 
ATOM      4  C   UNL d   1       2.332  13.868 -11.098  0.00  0.00     0.001 C 
ATOM      5  C   UNL d   1       2.391  13.713 -12.630  0.00  0.00    -0.014 C 
ATOM      6  C   UNL d   1       2.205  10.090 -10.012  0.00  0.00    -0.036 C 
ATOM      7  C   UNL d   1       2.091  10.375  -8.480  0.00  0.00     0.001 C 
ATOM      8  C   UNL d   1       2.893  11.250 -12.266  0.00  0.00     0.007 C 
ATOM      9  C   UNL d   1       3.341  12.552 -12.955  0.00  0.00     0.012 C 
ATOM     10  C   UNL d   1       1.681  12.841  -8.880  0.00  0.00     0.006 C 
ATOM     11  C   UNL d   1       1.642  15.217 -10.904  0.00  0.00     0.008 C 
ATOM     12  C   UNL d   1       2.927  15.108 -13.004  0.00  0.00     0.126 C 
ATOM     13  C   UNL d   1       1.207  11.586  -8.156  0.00  0.00     0.006 C 
ATOM     14  C   UNL d   1       2.147  16.067 -12.083  0.00  0.00     0.033 C 
ATOM     15  C   UNL d   1       3.261   8.959 -10.231  0.00  0.00     0.017 C 
ATOM     16  C   UNL d   1       1.018  13.464 -13.307  0.00  0.00     0.018 C 
ATOM     17  C   UNL d   1       0.850   9.601 -10.589  0.00  0.00     0.016 C 
ATOM     18  C   UNL d   1       1.611   9.149  -7.688  0.00  0.00     0.083 C 
ATOM     19  C   UNL d   1       3.495   8.029  -9.040  0.00  0.00     0.079 C 
ATOM     20  C   UNL d   1       2.276   7.880  -8.168  0.00  0.00     0.127 C 
ENDROOT
BRANCH  12  21
ATOM     21  O   UNL d   1       2.740  15.424 -14.370  0.00  0.00    -0.395 OA
ATOM     22  H   UNL d   1       2.961  14.645 -14.907  0.00  0.00     0.210 HD
ENDBRANCH  12  21
TORSDOF 1
ENDMDL
