MODEL 1
REMARK VINA RESULT:      -0.0      0.000      0.000
REMARK  6 active torsions:
REMARK  status: ('A' for Active; 'I' for Inactive)
REMARK    1  A    between atoms: N_8  and  C_18 
REMARK    2  A    between atoms: N_9  and  N_11 
REMARK       I    between atoms: N_9  and  C_22 
REMARK    3  A    between atoms: N_10  and  C_25 
REMARK       I    between atoms: N_11  and  C_27 
REMARK    4  A    between atoms: N_12  and  C_26 
REMARK       I    between atoms: N_12  and  C_27 
REMARK    5  A    between atoms: C_19  and  C_22 
REMARK    6  A    between atoms: C_28  and  C_33 
ROOT
ATOM      1  O   UNL d   1       3.472   2.806   0.834  0.00  0.00    -0.267 OA
ATOM      2  N   UNL d   1       4.002   2.890   3.093  0.00  0.00    -0.263 N 
ATOM      3  C   UNL d   1       3.494   3.392   1.912  0.00  0.00     0.260 C 
ATOM      4  H   UNL d   1       4.006   3.394   3.974  0.00  0.00     0.190 HD
ENDROOT
BRANCH   2   5
ATOM      5  N   UNL d   1       4.539   1.627   3.101  0.00  0.00    -0.248 N 
ATOM      6  C   UNL d   1       5.924   1.475   3.056  0.00  0.00     0.339 C 
ATOM      7  O   UNL d   1       6.704   2.424   3.009  0.00  0.00    -0.245 OA
ATOM      8  N   UNL d   1       6.262   0.119   3.074  0.00  0.00    -0.308 N 
ATOM      9  H   UNL d   1       5.489  -0.541   3.116  0.00  0.00     0.170 HD
ATOM     10  H   UNL d   1       3.890   0.849   3.146  0.00  0.00     0.192 HD
BRANCH   8  11
ATOM     11  C   UNL d   1       7.554  -0.455   3.042  0.00  0.00     0.037 A 
ATOM     12  C   UNL d   1       8.217  -0.616   1.826  0.00  0.00     0.045 A 
ATOM     13  C   UNL d   1       9.491  -1.182   1.795  0.00  0.00     0.050 A 
ATOM     14  C   UNL d   1      10.102  -1.588   2.980  0.00  0.00     0.016 A 
ATOM     15  C   UNL d   1       9.440  -1.427   4.198  0.00  0.00     0.003 A 
ATOM     16  C   UNL d   1       8.166  -0.861   4.228  0.00  0.00     0.029 A 
BRANCH  13  17
ATOM     17  C   UNL d   1      10.199  -1.355   0.493  0.00  0.00     0.417 C 
ATOM     18  F   UNL d   1      10.208  -2.644   0.041  0.00  0.00    -0.166 F 
ATOM     19  F   UNL d   1      11.513  -0.982   0.532  0.00  0.00    -0.166 F 
ATOM     20  F   UNL d   1       9.640  -0.618  -0.511  0.00  0.00    -0.166 F 
ENDBRANCH  13  17
ENDBRANCH   8  11
ENDBRANCH   2   5
BRANCH   3  21
ATOM     21  C   UNL d   1       2.957   4.764   2.092  0.00  0.00     0.078 C 
ATOM     22  C   UNL d   1       3.747   5.830   1.897  0.00  0.00    -0.071 C 
ATOM     23  C   UNL d   1       3.269   7.246   2.062  0.00  0.00     0.054 C 
ATOM     24  C   UNL d   1       5.196   5.718   1.515  0.00  0.00     0.054 C 
ATOM     25  C   UNL d   1       4.163   8.004   3.045  0.00  0.00     0.127 C 
ATOM     26  N   UNL d   1       5.582   7.867   2.673  0.00  0.00    -0.380 N 
ATOM     27  C   UNL d   1       6.078   6.493   2.497  0.00  0.00     0.127 C 
BRANCH  26  28
ATOM     28  C   UNL d   1       6.460   8.867   3.104  0.00  0.00     0.030 A 
ATOM     29  C   UNL d   1       5.960  10.091   3.549  0.00  0.00     0.032 A 
ATOM     30  C   UNL d   1       6.835  11.088   3.979  0.00  0.00     0.038 A 
ATOM     31  C   UNL d   1       8.212  10.862   3.962  0.00  0.00     0.103 A 
ATOM     32  C   UNL d   1       8.712   9.639   3.516  0.00  0.00     0.038 A 
ATOM     33  C   UNL d   1       7.837   8.642   3.087  0.00  0.00     0.032 A 
BRANCH  31  34
ATOM     34  N   UNL d   1       9.103  11.877   4.398  0.00  0.00    -0.116 N 
ATOM     35  O   UNL d   1      10.338  11.662   4.356  0.00  0.00    -0.532 OA
ATOM     36  O   UNL d   1       8.631  12.963   4.815  0.00  0.00    -0.532 OA
ENDBRANCH  31  34
ENDBRANCH  26  28
ENDBRANCH   3  21
TORSDOF 6
ENDMDL
MODEL 2
REMARK VINA RESULT:      -0.0     11.334     14.452
REMARK  6 active torsions:
REMARK  status: ('A' for Active; 'I' for Inactive)
REMARK    1  A    between atoms: N_8  and  C_18 
REMARK    2  A    between atoms: N_9  and  N_11 
REMARK       I    between atoms: N_9  and  C_22 
REMARK    3  A    between atoms: N_10  and  C_25 
REMARK       I    between atoms: N_11  and  C_27 
REMARK    4  A    between atoms: N_12  and  C_26 
REMARK       I    between atoms: N_12  and  C_27 
REMARK    5  A    between atoms: C_19  and  C_22 
REMARK    6  A    between atoms: C_28  and  C_33 
ROOT
ATOM      1  O   UNL d   1      -3.164   4.868  -3.393  0.00  0.00    -0.267 OA
ATOM      2  N   UNL d   1      -4.683   6.387  -2.510  0.00  0.00    -0.263 N 
ATOM      3  C   UNL d   1      -3.435   5.817  -2.665  0.00  0.00     0.260 C 
ATOM      4  H   UNL d   1      -4.881   7.174  -1.903  0.00  0.00     0.190 HD
ENDROOT
BRANCH   2   5
ATOM      5  N   UNL d   1      -5.740   5.871  -3.219  0.00  0.00    -0.248 N 
ATOM      6  C   UNL d   1      -6.634   5.012  -2.581  0.00  0.00     0.339 C 
ATOM      7  O   UNL d   1      -6.527   4.686  -1.401  0.00  0.00    -0.245 OA
ATOM      8  N   UNL d   1      -7.630   4.604  -3.472  0.00  0.00    -0.308 N 
ATOM      9  H   UNL d   1      -7.571   4.970  -4.418  0.00  0.00     0.170 HD
ATOM     10  H   UNL d   1      -5.825   6.149  -4.190  0.00  0.00     0.192 HD
BRANCH   8  11
ATOM     11  C   UNL d   1      -8.719   3.737  -3.220  0.00  0.00     0.037 A 
ATOM     12  C   UNL d   1      -8.541   2.356  -3.280  0.00  0.00     0.045 A 
ATOM     13  C   UNL d   1      -9.616   1.502  -3.032  0.00  0.00     0.050 A 
ATOM     14  C   UNL d   1     -10.869   2.031  -2.723  0.00  0.00     0.016 A 
ATOM     15  C   UNL d   1     -11.047   3.413  -2.661  0.00  0.00     0.003 A 
ATOM     16  C   UNL d   1      -9.973   4.266  -2.909  0.00  0.00     0.029 A 
BRANCH  13  17
ATOM     17  C   UNL d   1      -9.425   0.025  -3.098  0.00  0.00     0.417 C 
ATOM     18  F   UNL d   1      -8.161  -0.379  -2.774  0.00  0.00    -0.166 F 
ATOM     19  F   UNL d   1      -9.661  -0.503  -4.336  0.00  0.00    -0.166 F 
ATOM     20  F   UNL d   1     -10.254  -0.651  -2.249  0.00  0.00    -0.166 F 
ENDBRANCH  13  17
ENDBRANCH   8  11
ENDBRANCH   2   5
BRANCH   3  21
ATOM     21  C   UNL d   1      -2.419   6.502  -1.826  0.00  0.00     0.078 C 
ATOM     22  C   UNL d   1      -2.169   6.071  -0.581  0.00  0.00    -0.071 C 
ATOM     23  C   UNL d   1      -1.155   6.717   0.322  0.00  0.00     0.054 C 
ATOM     24  C   UNL d   1      -2.892   4.913   0.046  0.00  0.00     0.054 C 
ATOM     25  C   UNL d   1      -1.797   7.117   1.652  0.00  0.00     0.127 C 
ATOM     26  N   UNL d   1      -2.522   5.980   2.245  0.00  0.00    -0.380 N 
ATOM     27  C   UNL d   1      -3.516   5.321   1.384  0.00  0.00     0.127 C 
BRANCH  26  28
ATOM     28  C   UNL d   1      -2.709   5.987   3.631  0.00  0.00     0.030 A 
ATOM     29  C   UNL d   1      -3.648   5.135   4.214  0.00  0.00     0.032 A 
ATOM     30  C   UNL d   1      -3.834   5.141   5.595  0.00  0.00     0.038 A 
ATOM     31  C   UNL d   1      -3.081   6.002   6.396  0.00  0.00     0.103 A 
ATOM     32  C   UNL d   1      -2.143   6.854   5.815  0.00  0.00     0.038 A 
ATOM     33  C   UNL d   1      -1.957   6.846   4.432  0.00  0.00     0.032 A 
BRANCH  31  34
ATOM     34  N   UNL d   1      -3.271   6.010   7.803  0.00  0.00    -0.116 N 
ATOM     35  O   UNL d   1      -4.121   5.237   8.307  0.00  0.00    -0.532 OA
ATOM     36  O   UNL d   1      -2.584   6.792   8.505  0.00  0.00    -0.532 OA
ENDBRANCH  31  34
ENDBRANCH  26  28
ENDBRANCH   3  21
TORSDOF 6
ENDMDL
MODEL 3
REMARK VINA RESULT:      -0.0     12.027     13.563
REMARK  6 active torsions:
REMARK  status: ('A' for Active; 'I' for Inactive)
REMARK    1  A    between atoms: N_8  and  C_18 
REMARK    2  A    between atoms: N_9  and  N_11 
REMARK       I    between atoms: N_9  and  C_22 
REMARK    3  A    between atoms: N_10  and  C_25 
REMARK       I    between atoms: N_11  and  C_27 
REMARK    4  A    between atoms: N_12  and  C_26 
REMARK       I    between atoms: N_12  and  C_27 
REMARK    5  A    between atoms: C_19  and  C_22 
REMARK    6  A    between atoms: C_28  and  C_33 
ROOT
ATOM      1  O   UNL d   1       8.095   9.394 -10.994  0.00  0.00    -0.267 OA
ATOM      2  N   UNL d   1       5.968  10.058 -11.651  0.00  0.00    -0.263 N 
ATOM      3  C   UNL d   1       7.235  10.257 -11.141  0.00  0.00     0.260 C 
ATOM      4  H   UNL d   1       5.275  10.790 -11.764  0.00  0.00     0.190 HD
ENDROOT
BRANCH   2   5
ATOM      5  N   UNL d   1       5.602   8.793 -12.041  0.00  0.00    -0.248 N 
ATOM      6  C   UNL d   1       4.813   8.020 -11.191  0.00  0.00     0.339 C 
ATOM      7  O   UNL d   1       4.421   8.413 -10.094  0.00  0.00    -0.245 OA
ATOM      8  N   UNL d   1       4.553   6.776 -11.772  0.00  0.00    -0.308 N 
ATOM      9  H   UNL d   1       4.955   6.612 -12.691  0.00  0.00     0.170 HD
ATOM     10  H   UNL d   1       5.924   8.478 -12.949  0.00  0.00     0.192 HD
BRANCH   8  11
ATOM     11  C   UNL d   1       3.795   5.708 -11.237  0.00  0.00     0.037 A 
ATOM     12  C   UNL d   1       4.387   4.804 -10.357  0.00  0.00     0.045 A 
ATOM     13  C   UNL d   1       3.638   3.751  -9.830  0.00  0.00     0.050 A 
ATOM     14  C   UNL d   1       2.298   3.604 -10.184  0.00  0.00     0.016 A 
ATOM     15  C   UNL d   1       1.705   4.509 -11.064  0.00  0.00     0.003 A 
ATOM     16  C   UNL d   1       2.453   5.561 -11.591  0.00  0.00     0.029 A 
BRANCH  13  17
ATOM     17  C   UNL d   1       4.272   2.784  -8.889  0.00  0.00     0.417 C 
ATOM     18  F   UNL d   1       4.784   1.676  -9.504  0.00  0.00    -0.166 F 
ATOM     19  F   UNL d   1       3.414   2.299  -7.942  0.00  0.00    -0.166 F 
ATOM     20  F   UNL d   1       5.311   3.330  -8.193  0.00  0.00    -0.166 F 
ENDBRANCH  13  17
ENDBRANCH   8  11
ENDBRANCH   2   5
BRANCH   3  21
ATOM     21  C   UNL d   1       7.455  11.679 -10.774  0.00  0.00     0.078 C 
ATOM     22  C   UNL d   1       7.175  12.109  -9.535  0.00  0.00    -0.071 C 
ATOM     23  C   UNL d   1       7.373  13.534  -9.098  0.00  0.00     0.054 C 
ATOM     24  C   UNL d   1       6.616  11.216  -8.465  0.00  0.00     0.054 C 
ATOM     25  C   UNL d   1       6.076  14.104  -8.521  0.00  0.00     0.127 C 
ATOM     26  N   UNL d   1       5.525  13.208  -7.489  0.00  0.00    -0.380 N 
ATOM     27  C   UNL d   1       5.327  11.805  -7.884  0.00  0.00     0.127 C 
BRANCH  26  28
ATOM     28  C   UNL d   1       4.689  13.776  -6.522  0.00  0.00     0.030 A 
ATOM     29  C   UNL d   1       3.815  12.968  -5.794  0.00  0.00     0.032 A 
ATOM     30  C   UNL d   1       2.982  13.534  -4.829  0.00  0.00     0.038 A 
ATOM     31  C   UNL d   1       3.022  14.909  -4.593  0.00  0.00     0.103 A 
ATOM     32  C   UNL d   1       3.895  15.716  -5.320  0.00  0.00     0.038 A 
ATOM     33  C   UNL d   1       4.729  15.150  -6.285  0.00  0.00     0.032 A 
BRANCH  31  34
ATOM     34  N   UNL d   1       2.173  15.486  -3.612  0.00  0.00    -0.116 N 
ATOM     35  O   UNL d   1       1.353  14.752  -3.009  0.00  0.00    -0.532 OA
ATOM     36  O   UNL d   1       2.264  16.715  -3.375  0.00  0.00    -0.532 OA
ENDBRANCH  31  34
ENDBRANCH  26  28
ENDBRANCH   3  21
TORSDOF 6
ENDMDL
MODEL 4
REMARK VINA RESULT:      -0.0      6.267     12.091
REMARK  6 active torsions:
REMARK  status: ('A' for Active; 'I' for Inactive)
REMARK    1  A    between atoms: N_8  and  C_18 
REMARK    2  A    between atoms: N_9  and  N_11 
REMARK       I    between atoms: N_9  and  C_22 
REMARK    3  A    between atoms: N_10  and  C_25 
REMARK       I    between atoms: N_11  and  C_27 
REMARK    4  A    between atoms: N_12  and  C_26 
REMARK       I    between atoms: N_12  and  C_27 
REMARK    5  A    between atoms: C_19  and  C_22 
REMARK    6  A    between atoms: C_28  and  C_33 
ROOT
ATOM      1  O   UNL d   1       7.160   1.987  -1.327  0.00  0.00    -0.267 OA
ATOM      2  N   UNL d   1       8.365   0.971   0.379  0.00  0.00    -0.263 N 
ATOM      3  C   UNL d   1       7.894   1.095  -0.913  0.00  0.00     0.260 C 
ATOM      4  H   UNL d   1       8.974   0.224   0.696  0.00  0.00     0.190 HD
ENDROOT
BRANCH   2   5
ATOM      5  N   UNL d   1       8.002   1.912   1.310  0.00  0.00    -0.248 N 
ATOM      6  C   UNL d   1       6.985   1.615   2.218  0.00  0.00     0.339 C 
ATOM      7  O   UNL d   1       6.387   0.541   2.230  0.00  0.00    -0.245 OA
ATOM      8  N   UNL d   1       6.772   2.697   3.075  0.00  0.00    -0.308 N 
ATOM      9  H   UNL d   1       7.358   3.515   2.928  0.00  0.00     0.170 HD
ATOM     10  H   UNL d   1       8.503   2.793   1.299  0.00  0.00     0.192 HD
BRANCH   8  11
ATOM     11  C   UNL d   1       5.835   2.799   4.130  0.00  0.00     0.037 A 
ATOM     12  C   UNL d   1       4.513   3.149   3.859  0.00  0.00     0.045 A 
ATOM     13  C   UNL d   1       3.590   3.249   4.900  0.00  0.00     0.050 A 
ATOM     14  C   UNL d   1       3.989   2.999   6.212  0.00  0.00     0.016 A 
ATOM     15  C   UNL d   1       5.312   2.648   6.484  0.00  0.00     0.003 A 
ATOM     16  C   UNL d   1       6.235   2.548   5.443  0.00  0.00     0.029 A 
BRANCH  13  17
ATOM     17  C   UNL d   1       2.176   3.624   4.609  0.00  0.00     0.417 C 
ATOM     18  F   UNL d   1       1.740   3.207   3.383  0.00  0.00    -0.166 F 
ATOM     19  F   UNL d   1       1.953   4.972   4.626  0.00  0.00    -0.166 F 
ATOM     20  F   UNL d   1       1.296   3.097   5.510  0.00  0.00    -0.166 F 
ENDBRANCH  13  17
ENDBRANCH   8  11
ENDBRANCH   2   5
BRANCH   3  21
ATOM     21  C   UNL d   1       8.388  -0.006  -1.778  0.00  0.00     0.078 C 
ATOM     22  C   UNL d   1       7.673  -1.132  -1.913  0.00  0.00    -0.071 C 
ATOM     23  C   UNL d   1       8.114  -2.285  -2.772  0.00  0.00     0.054 C 
ATOM     24  C   UNL d   1       6.371  -1.366  -1.202  0.00  0.00     0.054 C 
ATOM     25  C   UNL d   1       8.151  -3.579  -1.957  0.00  0.00     0.127 C 
ATOM     26  N   UNL d   1       6.876  -3.785  -1.246  0.00  0.00    -0.380 N 
ATOM     27  C   UNL d   1       6.414  -2.672  -0.403  0.00  0.00     0.127 C 
BRANCH  26  28
ATOM     28  C   UNL d   1       6.536  -5.098  -0.902  0.00  0.00     0.030 A 
ATOM     29  C   UNL d   1       5.501  -5.336   0.003  0.00  0.00     0.032 A 
ATOM     30  C   UNL d   1       5.160  -6.644   0.345  0.00  0.00     0.038 A 
ATOM     31  C   UNL d   1       5.856  -7.715  -0.217  0.00  0.00     0.103 A 
ATOM     32  C   UNL d   1       6.891  -7.478  -1.120  0.00  0.00     0.038 A 
ATOM     33  C   UNL d   1       7.230  -6.169  -1.464  0.00  0.00     0.032 A 
BRANCH  31  34
ATOM     34  N   UNL d   1       5.510  -9.047   0.133  0.00  0.00    -0.116 N 
ATOM     35  O   UNL d   1       4.571  -9.240   0.942  0.00  0.00    -0.532 OA
ATOM     36  O   UNL d   1       6.155  -9.997  -0.376  0.00  0.00    -0.532 OA
ENDBRANCH  31  34
ENDBRANCH  26  28
ENDBRANCH   3  21
TORSDOF 6
ENDMDL
MODEL 5
REMARK VINA RESULT:       0.0     11.252     14.037
REMARK  6 active torsions:
REMARK  status: ('A' for Active; 'I' for Inactive)
REMARK    1  A    between atoms: N_8  and  C_18 
REMARK    2  A    between atoms: N_9  and  N_11 
REMARK       I    between atoms: N_9  and  C_22 
REMARK    3  A    between atoms: N_10  and  C_25 
REMARK       I    between atoms: N_11  and  C_27 
REMARK    4  A    between atoms: N_12  and  C_26 
REMARK       I    between atoms: N_12  and  C_27 
REMARK    5  A    between atoms: C_19  and  C_22 
REMARK    6  A    between atoms: C_28  and  C_33 
ROOT
ATOM      1  O   UNL d   1       2.317   1.406  -5.559  0.00  0.00    -0.267 OA
ATOM      2  N   UNL d   1       0.650   2.301  -6.905  0.00  0.00    -0.263 N 
ATOM      3  C   UNL d   1       1.832   1.631  -6.664  0.00  0.00     0.260 C 
ATOM      4  H   UNL d   1       0.268   2.473  -7.829  0.00  0.00     0.190 HD
ENDROOT
BRANCH   2   5
ATOM      5  N   UNL d   1      -0.075   2.772  -5.838  0.00  0.00    -0.248 N 
ATOM      6  C   UNL d   1       0.006   4.124  -5.504  0.00  0.00     0.339 C 
ATOM      7  O   UNL d   1       0.701   4.929  -6.120  0.00  0.00    -0.245 OA
ATOM      8  N   UNL d   1      -0.803   4.397  -4.398  0.00  0.00    -0.308 N 
ATOM      9  H   UNL d   1      -1.316   3.611  -4.006  0.00  0.00     0.170 HD
ATOM     10  H   UNL d   1      -0.650   2.105  -5.338  0.00  0.00     0.192 HD
BRANCH   8  11
ATOM     11  C   UNL d   1      -0.999   5.638  -3.749  0.00  0.00     0.037 A 
ATOM     12  C   UNL d   1      -0.091   6.075  -2.786  0.00  0.00     0.045 A 
ATOM     13  C   UNL d   1      -0.286   7.299  -2.147  0.00  0.00     0.050 A 
ATOM     14  C   UNL d   1      -1.389   8.087  -2.472  0.00  0.00     0.016 A 
ATOM     15  C   UNL d   1      -2.298   7.652  -3.437  0.00  0.00     0.003 A 
ATOM     16  C   UNL d   1      -2.103   6.428  -4.075  0.00  0.00     0.029 A 
BRANCH  13  17
ATOM     17  C   UNL d   1       0.686   7.765  -1.116  0.00  0.00     0.417 C 
ATOM     18  F   UNL d   1       1.951   7.282  -1.298  0.00  0.00    -0.166 F 
ATOM     19  F   UNL d   1       0.348   7.403   0.158  0.00  0.00    -0.166 F 
ATOM     20  F   UNL d   1       0.812   9.123  -1.088  0.00  0.00    -0.166 F 
ENDBRANCH  13  17
ENDBRANCH   8  11
ENDBRANCH   2   5
BRANCH   3  21
ATOM     21  C   UNL d   1       2.476   1.195  -7.928  0.00  0.00     0.078 C 
ATOM     22  C   UNL d   1       3.362   1.990  -8.545  0.00  0.00    -0.071 C 
ATOM     23  C   UNL d   1       4.050   1.612  -9.827  0.00  0.00     0.054 C 
ATOM     24  C   UNL d   1       3.741   3.350  -8.029  0.00  0.00     0.054 C 
ATOM     25  C   UNL d   1       3.835   2.689 -10.891  0.00  0.00     0.127 C 
ATOM     26  N   UNL d   1       4.187   4.020 -10.366  0.00  0.00    -0.380 N 
ATOM     27  C   UNL d   1       3.536   4.417  -9.108  0.00  0.00     0.127 C 
BRANCH  26  28
ATOM     28  C   UNL d   1       4.552   5.003 -11.293  0.00  0.00     0.030 A 
ATOM     29  C   UNL d   1       4.579   6.345 -10.912  0.00  0.00     0.032 A 
ATOM     30  C   UNL d   1       4.943   7.325 -11.835  0.00  0.00     0.038 A 
ATOM     31  C   UNL d   1       5.279   6.962 -13.140  0.00  0.00     0.103 A 
ATOM     32  C   UNL d   1       5.252   5.621 -13.521  0.00  0.00     0.038 A 
ATOM     33  C   UNL d   1       4.889   4.642 -12.597  0.00  0.00     0.032 A 
BRANCH  31  34
ATOM     34  N   UNL d   1       5.649   7.960 -14.081  0.00  0.00    -0.116 N 
ATOM     35  O   UNL d   1       5.663   9.161 -13.720  0.00  0.00    -0.532 OA
ATOM     36  O   UNL d   1       5.950   7.612 -15.249  0.00  0.00    -0.532 OA
ENDBRANCH  31  34
ENDBRANCH  26  28
ENDBRANCH   3  21
TORSDOF 6
ENDMDL
MODEL 6
REMARK VINA RESULT:       0.0     13.520     18.177
REMARK  6 active torsions:
REMARK  status: ('A' for Active; 'I' for Inactive)
REMARK    1  A    between atoms: N_8  and  C_18 
REMARK    2  A    between atoms: N_9  and  N_11 
REMARK       I    between atoms: N_9  and  C_22 
REMARK    3  A    between atoms: N_10  and  C_25 
REMARK       I    between atoms: N_11  and  C_27 
REMARK    4  A    between atoms: N_12  and  C_26 
REMARK       I    between atoms: N_12  and  C_27 
REMARK    5  A    between atoms: C_19  and  C_22 
REMARK    6  A    between atoms: C_28  and  C_33 
ROOT
ATOM      1  O   UNL d   1       1.767  -2.550  -4.678  0.00  0.00    -0.267 OA
ATOM      2  N   UNL d   1       2.128  -4.657  -3.768  0.00  0.00    -0.263 N 
ATOM      3  C   UNL d   1       2.249  -3.677  -4.734  0.00  0.00     0.260 C 
ATOM      4  H   UNL d   1       2.539  -5.582  -3.837  0.00  0.00     0.190 HD
ENDROOT
BRANCH   2   5
ATOM      5  N   UNL d   1       1.413  -4.380  -2.629  0.00  0.00    -0.248 N 
ATOM      6  C   UNL d   1       0.106  -4.851  -2.515  0.00  0.00     0.339 C 
ATOM      7  O   UNL d   1      -0.451  -5.511  -3.390  0.00  0.00    -0.245 OA
ATOM      8  N   UNL d   1      -0.441  -4.466  -1.289  0.00  0.00    -0.308 N 
ATOM      9  H   UNL d   1       0.160  -3.920  -0.676  0.00  0.00     0.170 HD
ATOM     10  H   UNL d   1       1.880  -3.841  -1.909  0.00  0.00     0.192 HD
BRANCH   8  11
ATOM     11  C   UNL d   1      -1.735  -4.741  -0.788  0.00  0.00     0.037 A 
ATOM     12  C   UNL d   1      -2.817  -3.953  -1.179  0.00  0.00     0.045 A 
ATOM     13  C   UNL d   1      -4.092  -4.225  -0.686  0.00  0.00     0.050 A 
ATOM     14  C   UNL d   1      -4.286  -5.286   0.199  0.00  0.00     0.016 A 
ATOM     15  C   UNL d   1      -3.205  -6.075   0.589  0.00  0.00     0.003 A 
ATOM     16  C   UNL d   1      -1.929  -5.803   0.096  0.00  0.00     0.029 A 
BRANCH  13  17
ATOM     17  C   UNL d   1      -5.249  -3.381  -1.103  0.00  0.00     0.417 C 
ATOM     18  F   UNL d   1      -5.638  -2.477  -0.156  0.00  0.00    -0.166 F 
ATOM     19  F   UNL d   1      -6.375  -4.100  -1.391  0.00  0.00    -0.166 F 
ATOM     20  F   UNL d   1      -4.988  -2.649  -2.224  0.00  0.00    -0.166 F 
ENDBRANCH  13  17
ENDBRANCH   8  11
ENDBRANCH   2   5
BRANCH   3  21
ATOM     21  C   UNL d   1       3.053  -4.151  -5.889  0.00  0.00     0.078 C 
ATOM     22  C   UNL d   1       2.453  -4.737  -6.935  0.00  0.00    -0.071 C 
ATOM     23  C   UNL d   1       3.206  -5.239  -8.136  0.00  0.00     0.054 C 
ATOM     24  C   UNL d   1       0.971  -4.970  -7.005  0.00  0.00     0.054 C 
ATOM     25  C   UNL d   1       2.887  -6.713  -8.392  0.00  0.00     0.127 C 
ATOM     26  N   UNL d   1       1.431  -6.933  -8.435  0.00  0.00    -0.380 N 
ATOM     27  C   UNL d   1       0.665  -6.445  -7.278  0.00  0.00     0.127 C 
BRANCH  26  28
ATOM     28  C   UNL d   1       0.967  -8.042  -9.150  0.00  0.00     0.030 A 
ATOM     29  C   UNL d   1      -0.340  -8.494  -8.968  0.00  0.00     0.032 A 
ATOM     30  C   UNL d   1      -0.803  -9.599  -9.681  0.00  0.00     0.038 A 
ATOM     31  C   UNL d   1       0.043 -10.255 -10.577  0.00  0.00     0.103 A 
ATOM     32  C   UNL d   1       1.350  -9.804 -10.759  0.00  0.00     0.038 A 
ATOM     33  C   UNL d   1       1.812  -8.698 -10.046  0.00  0.00     0.032 A 
BRANCH  31  34
ATOM     34  N   UNL d   1      -0.427 -11.381 -11.302  0.00  0.00    -0.116 N 
ATOM     35  O   UNL d   1      -1.605 -11.772 -11.122  0.00  0.00    -0.532 OA
ATOM     36  O   UNL d   1       0.350 -11.956 -12.103  0.00  0.00    -0.532 OA
ENDBRANCH  31  34
ENDBRANCH  26  28
ENDBRANCH   3  21
TORSDOF 6
ENDMDL
MODEL 7
REMARK VINA RESULT:       0.0      9.348     12.180
REMARK  6 active torsions:
REMARK  status: ('A' for Active; 'I' for Inactive)
REMARK    1  A    between atoms: N_8  and  C_18 
REMARK    2  A    between atoms: N_9  and  N_11 
REMARK       I    between atoms: N_9  and  C_22 
REMARK    3  A    between atoms: N_10  and  C_25 
REMARK       I    between atoms: N_11  and  C_27 
REMARK    4  A    between atoms: N_12  and  C_26 
REMARK       I    between atoms: N_12  and  C_27 
REMARK    5  A    between atoms: C_19  and  C_22 
REMARK    6  A    between atoms: C_28  and  C_33 
ROOT
ATOM      1  O   UNL d   1       8.009  -2.374  -9.842  0.00  0.00    -0.267 OA
ATOM      2  N   UNL d   1       8.148  -3.367  -7.747  0.00  0.00    -0.263 N 
ATOM      3  C   UNL d   1       7.488  -2.920  -8.875  0.00  0.00     0.260 C 
ATOM      4  H   UNL d   1       7.694  -3.819  -6.960  0.00  0.00     0.190 HD
ENDROOT
BRANCH   2   5
ATOM      5  N   UNL d   1       9.508  -3.203  -7.667  0.00  0.00    -0.248 N 
ATOM      6  C   UNL d   1      10.024  -2.155  -6.904  0.00  0.00     0.339 C 
ATOM      7  O   UNL d   1       9.317  -1.358  -6.291  0.00  0.00    -0.245 OA
ATOM      8  N   UNL d   1      11.420  -2.165  -6.951  0.00  0.00    -0.308 N 
ATOM      9  H   UNL d   1      11.850  -2.899  -7.509  0.00  0.00     0.170 HD
ATOM     10  H   UNL d   1      10.085  -3.867  -8.170  0.00  0.00     0.192 HD
BRANCH   8  11
ATOM     11  C   UNL d   1      12.318  -1.276  -6.317  0.00  0.00     0.037 A 
ATOM     12  C   UNL d   1      12.616  -0.047  -6.905  0.00  0.00     0.045 A 
ATOM     13  C   UNL d   1      13.502   0.830  -6.278  0.00  0.00     0.050 A 
ATOM     14  C   UNL d   1      14.089   0.478  -5.064  0.00  0.00     0.016 A 
ATOM     15  C   UNL d   1      13.790  -0.751  -4.474  0.00  0.00     0.003 A 
ATOM     16  C   UNL d   1      12.905  -1.627  -5.101  0.00  0.00     0.029 A 
BRANCH  13  17
ATOM     17  C   UNL d   1      13.821   2.143  -6.908  0.00  0.00     0.417 C 
ATOM     18  F   UNL d   1      12.820   2.628  -7.702  0.00  0.00    -0.166 F 
ATOM     19  F   UNL d   1      14.926   2.111  -7.711  0.00  0.00    -0.166 F 
ATOM     20  F   UNL d   1      14.066   3.122  -5.989  0.00  0.00    -0.166 F 
ENDBRANCH  13  17
ENDBRANCH   8  11
ENDBRANCH   2   5
BRANCH   3  21
ATOM     21  C   UNL d   1       6.029  -3.181  -8.788  0.00  0.00     0.078 C 
ATOM     22  C   UNL d   1       5.207  -2.260  -8.266  0.00  0.00    -0.071 C 
ATOM     23  C   UNL d   1       3.721  -2.458  -8.148  0.00  0.00     0.054 C 
ATOM     24  C   UNL d   1       5.690  -0.943  -7.725  0.00  0.00     0.054 C 
ATOM     25  C   UNL d   1       3.264  -2.250  -6.703  0.00  0.00     0.127 C 
ATOM     26  N   UNL d   1       3.763  -0.968  -6.177  0.00  0.00    -0.380 N 
ATOM     27  C   UNL d   1       5.212  -0.740  -6.284  0.00  0.00     0.127 C 
BRANCH  26  28
ATOM     28  C   UNL d   1       3.050  -0.381  -5.126  0.00  0.00     0.030 A 
ATOM     29  C   UNL d   1       3.630   0.640  -4.372  0.00  0.00     0.032 A 
ATOM     30  C   UNL d   1       2.919   1.225  -3.326  0.00  0.00     0.038 A 
ATOM     31  C   UNL d   1       1.627   0.789  -3.031  0.00  0.00     0.103 A 
ATOM     32  C   UNL d   1       1.047  -0.232  -3.783  0.00  0.00     0.038 A 
ATOM     33  C   UNL d   1       1.758  -0.817  -4.830  0.00  0.00     0.032 A 
BRANCH  31  34
ATOM     34  N   UNL d   1       0.903   1.384  -1.964  0.00  0.00    -0.116 N 
ATOM     35  O   UNL d   1      -0.265   0.991  -1.727  0.00  0.00    -0.532 OA
ATOM     36  O   UNL d   1       1.451   2.287  -1.286  0.00  0.00    -0.532 OA
ENDBRANCH  31  34
ENDBRANCH  26  28
ENDBRANCH   3  21
TORSDOF 6
ENDMDL
MODEL 8
REMARK VINA RESULT:       0.0     17.462     20.576
REMARK  6 active torsions:
REMARK  status: ('A' for Active; 'I' for Inactive)
REMARK    1  A    between atoms: N_8  and  C_18 
REMARK    2  A    between atoms: N_9  and  N_11 
REMARK       I    between atoms: N_9  and  C_22 
REMARK    3  A    between atoms: N_10  and  C_25 
REMARK       I    between atoms: N_11  and  C_27 
REMARK    4  A    between atoms: N_12  and  C_26 
REMARK       I    between atoms: N_12  and  C_27 
REMARK    5  A    between atoms: C_19  and  C_22 
REMARK    6  A    between atoms: C_28  and  C_33 
ROOT
ATOM      1  O   UNL d   1       2.108 -10.010   3.029  0.00  0.00    -0.267 OA
ATOM      2  N   UNL d   1       1.430 -12.231   3.014  0.00  0.00    -0.263 N 
ATOM      3  C   UNL d   1       2.299 -11.190   2.754  0.00  0.00     0.260 C 
ATOM      4  H   UNL d   1       1.612 -13.201   2.779  0.00  0.00     0.190 HD
ENDROOT
BRANCH   2   5
ATOM      5  N   UNL d   1       0.235 -11.958   3.633  0.00  0.00    -0.248 N 
ATOM      6  C   UNL d   1      -0.926 -11.875   2.866  0.00  0.00     0.339 C 
ATOM      7  O   UNL d   1      -0.941 -12.035   1.648  0.00  0.00    -0.245 OA
ATOM      8  N   UNL d   1      -2.025 -11.594   3.683  0.00  0.00    -0.308 N 
ATOM      9  H   UNL d   1      -1.837 -11.492   4.677  0.00  0.00     0.170 HD
ATOM     10  H   UNL d   1       0.253 -11.833   4.639  0.00  0.00     0.192 HD
BRANCH   8  11
ATOM     11  C   UNL d   1      -3.376 -11.430   3.297  0.00  0.00     0.037 A 
ATOM     12  C   UNL d   1      -3.845 -10.175   2.912  0.00  0.00     0.045 A 
ATOM     13  C   UNL d   1      -5.178 -10.016   2.532  0.00  0.00     0.050 A 
ATOM     14  C   UNL d   1      -6.040 -11.111   2.537  0.00  0.00     0.016 A 
ATOM     15  C   UNL d   1      -5.571 -12.367   2.921  0.00  0.00     0.003 A 
ATOM     16  C   UNL d   1      -4.239 -12.527   3.301  0.00  0.00     0.029 A 
BRANCH  13  17
ATOM     17  C   UNL d   1      -5.680  -8.673   2.121  0.00  0.00     0.417 C 
ATOM     18  F   UNL d   1      -4.687  -7.795   1.789  0.00  0.00    -0.166 F 
ATOM     19  F   UNL d   1      -6.405  -8.039   3.090  0.00  0.00    -0.166 F 
ATOM     20  F   UNL d   1      -6.499  -8.729   1.031  0.00  0.00    -0.166 F 
ENDBRANCH  13  17
ENDBRANCH   8  11
ENDBRANCH   2   5
BRANCH   3  21
ATOM     21  C   UNL d   1       3.534 -11.670   2.084  0.00  0.00     0.078 C 
ATOM     22  C   UNL d   1       3.604 -11.713   0.746  0.00  0.00    -0.071 C 
ATOM     23  C   UNL d   1       4.822 -12.187   0.004  0.00  0.00     0.054 C 
ATOM     24  C   UNL d   1       2.464 -11.313  -0.148  0.00  0.00     0.054 C 
ATOM     25  C   UNL d   1       4.456 -13.311  -0.968  0.00  0.00     0.127 C 
ATOM     26  N   UNL d   1       3.323 -12.915  -1.822  0.00  0.00    -0.380 N 
ATOM     27  C   UNL d   1       2.118 -12.439  -1.125  0.00  0.00     0.127 C 
BRANCH  26  28
ATOM     28  C   UNL d   1       3.195 -13.553  -3.060  0.00  0.00     0.030 A 
ATOM     29  C   UNL d   1       1.995 -13.472  -3.767  0.00  0.00     0.032 A 
ATOM     30  C   UNL d   1       1.868 -14.107  -5.002  0.00  0.00     0.038 A 
ATOM     31  C   UNL d   1       2.942 -14.826  -5.530  0.00  0.00     0.103 A 
ATOM     32  C   UNL d   1       4.141 -14.908  -4.824  0.00  0.00     0.038 A 
ATOM     33  C   UNL d   1       4.268 -14.271  -3.589  0.00  0.00     0.032 A 
BRANCH  31  34
ATOM     34  N   UNL d   1       2.812 -15.474  -6.787  0.00  0.00    -0.116 N 
ATOM     35  O   UNL d   1       1.724 -15.390  -7.406  0.00  0.00    -0.532 OA
ATOM     36  O   UNL d   1       3.790 -16.115  -7.244  0.00  0.00    -0.532 OA
ENDBRANCH  31  34
ENDBRANCH  26  28
ENDBRANCH   3  21
TORSDOF 6
ENDMDL
MODEL 9
REMARK VINA RESULT:       0.0     10.526     12.876
REMARK  6 active torsions:
REMARK  status: ('A' for Active; 'I' for Inactive)
REMARK    1  A    between atoms: N_8  and  C_18 
REMARK    2  A    between atoms: N_9  and  N_11 
REMARK       I    between atoms: N_9  and  C_22 
REMARK    3  A    between atoms: N_10  and  C_25 
REMARK       I    between atoms: N_11  and  C_27 
REMARK    4  A    between atoms: N_12  and  C_26 
REMARK       I    between atoms: N_12  and  C_27 
REMARK    5  A    between atoms: C_19  and  C_22 
REMARK    6  A    between atoms: C_28  and  C_33 
ROOT
ATOM      1  O   UNL d   1      -1.482  -3.160   0.664  0.00  0.00    -0.267 OA
ATOM      2  N   UNL d   1       0.225  -1.631   1.036  0.00  0.00    -0.263 N 
ATOM      3  C   UNL d   1      -0.473  -2.564   0.298  0.00  0.00     0.260 C 
ATOM      4  H   UNL d   1       1.057  -1.149   0.710  0.00  0.00     0.190 HD
ENDROOT
BRANCH   2   5
ATOM      5  N   UNL d   1      -0.218  -1.314   2.296  0.00  0.00    -0.248 N 
ATOM      6  C   UNL d   1       0.413  -1.882   3.403  0.00  0.00     0.339 C 
ATOM      7  O   UNL d   1       1.359  -2.661   3.312  0.00  0.00    -0.245 OA
ATOM      8  N   UNL d   1      -0.185  -1.433   4.583  0.00  0.00    -0.308 N 
ATOM      9  H   UNL d   1      -0.962  -0.784   4.480  0.00  0.00     0.170 HD
ATOM     10  H   UNL d   1      -0.995  -0.666   2.365  0.00  0.00     0.192 HD
BRANCH   8  11
ATOM     11  C   UNL d   1       0.157  -1.769   5.913  0.00  0.00     0.037 A 
ATOM     12  C   UNL d   1      -0.309  -2.957   6.475  0.00  0.00     0.045 A 
ATOM     13  C   UNL d   1       0.029  -3.288   7.787  0.00  0.00     0.050 A 
ATOM     14  C   UNL d   1       0.832  -2.430   8.538  0.00  0.00     0.016 A 
ATOM     15  C   UNL d   1       1.299  -1.242   7.976  0.00  0.00     0.003 A 
ATOM     16  C   UNL d   1       0.961  -0.911   6.664  0.00  0.00     0.029 A 
BRANCH  13  17
ATOM     17  C   UNL d   1      -0.470  -4.559   8.388  0.00  0.00     0.417 C 
ATOM     18  F   UNL d   1       0.467  -5.218   9.131  0.00  0.00    -0.166 F 
ATOM     19  F   UNL d   1      -0.896  -5.470   7.463  0.00  0.00    -0.166 F 
ATOM     20  F   UNL d   1      -1.531  -4.364   9.224  0.00  0.00    -0.166 F 
ENDBRANCH  13  17
ENDBRANCH   8  11
ENDBRANCH   2   5
BRANCH   3  21
ATOM     21  C   UNL d   1       0.148  -2.778  -1.034  0.00  0.00     0.078 C 
ATOM     22  C   UNL d   1       1.072  -3.734  -1.203  0.00  0.00    -0.071 C 
ATOM     23  C   UNL d   1       1.741  -4.004  -2.522  0.00  0.00     0.054 C 
ATOM     24  C   UNL d   1       1.550  -4.619  -0.086  0.00  0.00     0.054 C 
ATOM     25  C   UNL d   1       3.262  -3.941  -2.377  0.00  0.00     0.127 C 
ATOM     26  N   UNL d   1       3.716  -4.794  -1.264  0.00  0.00    -0.380 N 
ATOM     27  C   UNL d   1       3.075  -4.560   0.039  0.00  0.00     0.127 C 
BRANCH  26  28
ATOM     28  C   UNL d   1       5.032  -5.266  -1.310  0.00  0.00     0.030 A 
ATOM     29  C   UNL d   1       5.630  -5.777  -0.158  0.00  0.00     0.032 A 
ATOM     30  C   UNL d   1       6.942  -6.249  -0.203  0.00  0.00     0.038 A 
ATOM     31  C   UNL d   1       7.657  -6.208  -1.401  0.00  0.00     0.103 A 
ATOM     32  C   UNL d   1       7.059  -5.697  -2.552  0.00  0.00     0.038 A 
ATOM     33  C   UNL d   1       5.747  -5.226  -2.507  0.00  0.00     0.032 A 
BRANCH  31  34
ATOM     34  N   UNL d   1       8.993  -6.686  -1.447  0.00  0.00    -0.116 N 
ATOM     35  O   UNL d   1       9.600  -6.690  -2.544  0.00  0.00    -0.532 OA
ATOM     36  O   UNL d   1       9.530  -7.094  -0.388  0.00  0.00    -0.532 OA
ENDBRANCH  31  34
ENDBRANCH  26  28
ENDBRANCH   3  21
TORSDOF 6
ENDMDL
