MODEL 1
REMARK VINA RESULT:      -0.0      0.000      0.000
REMARK  8 active torsions:
REMARK  status: ('A' for Active; 'I' for Inactive)
REMARK    1  A    between atoms: O_4  and  C_14 
REMARK    2  A    between atoms: O_4  and  C_18 
REMARK    3  A    between atoms: O_5  and  C_17 
REMARK    4  A    between atoms: O_7  and  C_23 
REMARK    5  A    between atoms: N_8  and  CA_10 
REMARK    6  A    between atoms: C_9  and  CA_10 
REMARK    7  A    between atoms: C_9  and  C_11 
REMARK    8  A    between atoms: CA_10  and  C_17 
ROOT
ATOM      1  I   UNL d   1      -9.346  10.629 -16.820  0.00  0.00    -0.042 I 
ATOM      2  I   UNL d   1      -8.522   4.985 -14.647  0.00  0.00    -0.042 I 
ATOM      3  C   UNL d   1     -11.392   6.850 -17.287  0.00  0.00    -0.053 A 
ATOM      4  C   UNL d   1     -10.685   5.945 -16.513  0.00  0.00     0.028 A 
ATOM      5  C   UNL d   1     -11.011   8.179 -17.373  0.00  0.00     0.028 A 
ATOM      6  C   UNL d   1      -9.169   7.717 -15.881  0.00  0.00     0.109 A 
ATOM      7  C   UNL d   1      -9.891   8.615 -16.665  0.00  0.00     0.042 A 
ATOM      8  C   UNL d   1      -9.565   6.382 -15.805  0.00  0.00     0.042 A 
ENDROOT
BRANCH   6   9
ATOM      9  O   UNL d   1      -8.072   8.143 -15.187  0.00  0.00    -0.308 OA
BRANCH   9  10
ATOM     10  C   UNL d   1      -8.236   8.431 -13.845  0.00  0.00     0.077 A 
ATOM     11  C   UNL d   1      -9.500   8.737 -13.369  0.00  0.00     0.058 A 
ATOM     12  C   UNL d   1      -9.665   9.027 -12.015  0.00  0.00     0.042 A 
ATOM     13  I   UNL d   1     -11.582   9.486 -11.320  0.00  0.00    -0.042 I 
ATOM     14  C   UNL d   1      -8.564   9.007 -11.158  0.00  0.00     0.082 A 
ATOM     15  C   UNL d   1      -7.299   8.696 -11.654  0.00  0.00     0.040 A 
ATOM     16  C   UNL d   1      -7.134   8.407 -13.009  0.00  0.00     0.040 A 
BRANCH  14  17
ATOM     17  O   UNL d   1      -8.684   9.284  -9.828  0.00  0.00    -0.359 OA
ATOM     18  H   UNL d   1      -7.911   8.930  -9.355  0.00  0.00     0.217 HD
ENDBRANCH  14  17
ENDBRANCH   9  10
ENDBRANCH   6   9
BRANCH   3  19
ATOM     19  C   UNL d   1     -12.604   6.378 -18.055  0.00  0.00     0.085 C 
BRANCH  19  20
ATOM     20  CA  UNL d   1     -13.688   5.774 -17.148  0.00  0.00     0.318 C 
BRANCH  20  21
ATOM     21  N   UNL d   1     -14.790   5.268 -17.963  0.00  0.00     0.093 N 
ATOM     22  H1  UNL d   1     -14.422   4.667 -18.700  0.00  0.00     0.314 HD
ATOM     23  H2  UNL d   1     -15.251   6.042 -18.441  0.00  0.00     0.314 HD
ENDBRANCH  20  21
BRANCH  20  24
ATOM     24  C   UNL d   1     -14.283   6.805 -16.205  0.00  0.00     0.174 C 
ATOM     25  OXT UNL d   1     -14.917   7.792 -16.557  0.00  0.00    -0.648 OA
BRANCH  24  26
ATOM     26  O   UNL d   1     -14.067   6.498 -14.899  0.00  0.00    -0.775 OA
ATOM     27  H   UNL d   1     -13.111   6.399 -14.702  0.00  0.00     0.167 HD
ENDBRANCH  24  26
ENDBRANCH  20  24
ENDBRANCH  19  20
ENDBRANCH   3  19
TORSDOF 8
ENDMDL
MODEL 2
REMARK VINA RESULT:      -0.0     20.904     23.562
REMARK  8 active torsions:
REMARK  status: ('A' for Active; 'I' for Inactive)
REMARK    1  A    between atoms: O_4  and  C_14 
REMARK    2  A    between atoms: O_4  and  C_18 
REMARK    3  A    between atoms: O_5  and  C_17 
REMARK    4  A    between atoms: O_7  and  C_23 
REMARK    5  A    between atoms: N_8  and  CA_10 
REMARK    6  A    between atoms: C_9  and  CA_10 
REMARK    7  A    between atoms: C_9  and  C_11 
REMARK    8  A    between atoms: CA_10  and  C_17 
ROOT
ATOM      1  I   UNL d   1      -6.794   1.396   4.417  0.00  0.00    -0.042 I 
ATOM      2  I   UNL d   1      -5.088   5.099   8.958  0.00  0.00    -0.042 I 
ATOM      3  C   UNL d   1      -6.776   1.126   8.731  0.00  0.00    -0.053 A 
ATOM      4  C   UNL d   1      -6.253   2.329   9.178  0.00  0.00     0.028 A 
ATOM      5  C   UNL d   1      -6.928   0.863   7.380  0.00  0.00     0.028 A 
ATOM      6  C   UNL d   1      -6.022   3.046   6.882  0.00  0.00     0.109 A 
ATOM      7  C   UNL d   1      -6.549   1.830   6.449  0.00  0.00     0.042 A 
ATOM      8  C   UNL d   1      -5.874   3.295   8.246  0.00  0.00     0.042 A 
ENDROOT
BRANCH   6   9
ATOM      9  O   UNL d   1      -5.649   3.992   5.970  0.00  0.00    -0.308 OA
BRANCH   9  10
ATOM     10  C   UNL d   1      -6.537   5.022   5.719  0.00  0.00     0.077 A 
ATOM     11  C   UNL d   1      -7.881   4.838   5.994  0.00  0.00     0.058 A 
ATOM     12  C   UNL d   1      -8.777   5.876   5.740  0.00  0.00     0.042 A 
ATOM     13  I   UNL d   1     -10.801   5.574   6.162  0.00  0.00    -0.042 I 
ATOM     14  C   UNL d   1      -8.314   7.084   5.216  0.00  0.00     0.082 A 
ATOM     15  C   UNL d   1      -6.956   7.252   4.946  0.00  0.00     0.040 A 
ATOM     16  C   UNL d   1      -6.061   6.213   5.200  0.00  0.00     0.040 A 
BRANCH  14  17
ATOM     17  O   UNL d   1      -9.156   8.124   4.955  0.00  0.00    -0.359 OA
ATOM     18  H   UNL d   1      -8.641   8.946   4.890  0.00  0.00     0.217 HD
ENDBRANCH  14  17
ENDBRANCH   9  10
ENDBRANCH   6   9
BRANCH   3  19
ATOM     19  C   UNL d   1      -7.186   0.079   9.739  0.00  0.00     0.085 C 
BRANCH  19  20
ATOM     20  CA  UNL d   1      -8.258   0.581  10.720  0.00  0.00     0.318 C 
BRANCH  20  21
ATOM     21  N   UNL d   1      -8.545  -0.454  11.711  0.00  0.00     0.093 N 
ATOM     22  H1  UNL d   1      -7.676  -0.769  12.138  0.00  0.00     0.314 HD
ATOM     23  H2  UNL d   1      -8.941  -1.274  11.250  0.00  0.00     0.314 HD
ENDBRANCH  20  21
BRANCH  20  24
ATOM     24  C   UNL d   1      -9.570   0.891  10.022  0.00  0.00     0.174 C 
ATOM     25  OXT UNL d   1     -10.270   0.066   9.448  0.00  0.00    -0.648 OA
BRANCH  24  26
ATOM     26  O   UNL d   1      -9.916   2.201  10.131  0.00  0.00    -0.775 OA
ATOM     27  H   UNL d   1      -9.537   2.740   9.405  0.00  0.00     0.167 HD
ENDBRANCH  24  26
ENDBRANCH  20  24
ENDBRANCH  19  20
ENDBRANCH   3  19
TORSDOF 8
ENDMDL
MODEL 3
REMARK VINA RESULT:      -0.0     31.698     33.734
REMARK  8 active torsions:
REMARK  status: ('A' for Active; 'I' for Inactive)
REMARK    1  A    between atoms: O_4  and  C_14 
REMARK    2  A    between atoms: O_4  and  C_18 
REMARK    3  A    between atoms: O_5  and  C_17 
REMARK    4  A    between atoms: O_7  and  C_23 
REMARK    5  A    between atoms: N_8  and  CA_10 
REMARK    6  A    between atoms: C_9  and  CA_10 
REMARK    7  A    between atoms: C_9  and  C_11 
REMARK    8  A    between atoms: CA_10  and  C_17 
ROOT
ATOM      1  I   UNL d   1       9.443  -4.163  11.683  0.00  0.00    -0.042 I 
ATOM      2  I   UNL d   1       3.797  -2.544  10.025  0.00  0.00    -0.042 I 
ATOM      3  C   UNL d   1       7.647  -0.578  10.070  0.00  0.00    -0.053 A 
ATOM      4  C   UNL d   1       6.301  -0.872   9.915  0.00  0.00     0.028 A 
ATOM      5  C   UNL d   1       8.537  -1.513  10.572  0.00  0.00     0.028 A 
ATOM      6  C   UNL d   1       6.718  -3.089  10.780  0.00  0.00     0.109 A 
ATOM      7  C   UNL d   1       8.069  -2.777  10.930  0.00  0.00     0.042 A 
ATOM      8  C   UNL d   1       5.834  -2.136  10.273  0.00  0.00     0.042 A 
ENDROOT
BRANCH   6   9
ATOM      9  O   UNL d   1       6.260  -4.328  11.130  0.00  0.00    -0.308 OA
BRANCH   9  10
ATOM     10  C   UNL d   1       5.649  -4.458  12.364  0.00  0.00     0.077 A 
ATOM     11  C   UNL d   1       5.933  -3.539  13.360  0.00  0.00     0.058 A 
ATOM     12  C   UNL d   1       5.316  -3.671  14.603  0.00  0.00     0.042 A 
ATOM     13  I   UNL d   1       5.761  -2.272  16.091  0.00  0.00    -0.042 I 
ATOM     14  C   UNL d   1       4.425  -4.720  14.832  0.00  0.00     0.082 A 
ATOM     15  C   UNL d   1       4.151  -5.636  13.818  0.00  0.00     0.040 A 
ATOM     16  C   UNL d   1       4.768  -5.504  12.574  0.00  0.00     0.040 A 
BRANCH  14  17
ATOM     17  O   UNL d   1       3.802  -4.884  16.034  0.00  0.00    -0.359 OA
ATOM     18  H   UNL d   1       4.415  -5.306  16.659  0.00  0.00     0.217 HD
ENDBRANCH  14  17
ENDBRANCH   9  10
ENDBRANCH   6   9
BRANCH   3  19
ATOM     19  C   UNL d   1       8.153   0.792   9.681  0.00  0.00     0.085 C 
BRANCH  19  20
ATOM     20  CA  UNL d   1       7.459   1.926  10.451  0.00  0.00     0.318 C 
BRANCH  20  21
ATOM     21  N   UNL d   1       7.932   3.218   9.960  0.00  0.00     0.093 N 
ATOM     22  H1  UNL d   1       8.235   3.792  10.746  0.00  0.00     0.314 HD
ATOM     23  H2  UNL d   1       7.160   3.727   9.527  0.00  0.00     0.314 HD
ENDBRANCH  20  21
BRANCH  20  24
ATOM     24  C   UNL d   1       7.772   1.883  11.937  0.00  0.00     0.174 C 
ATOM     25  OXT UNL d   1       8.884   2.047  12.422  0.00  0.00    -0.648 OA
BRANCH  24  26
ATOM     26  O   UNL d   1       6.662   1.677  12.693  0.00  0.00    -0.775 OA
ATOM     27  H   UNL d   1       6.657   0.782  13.096  0.00  0.00     0.167 HD
ENDBRANCH  24  26
ENDBRANCH  20  24
ENDBRANCH  19  20
ENDBRANCH   3  19
TORSDOF 8
ENDMDL
MODEL 4
REMARK VINA RESULT:      -0.0     21.013     23.976
REMARK  8 active torsions:
REMARK  status: ('A' for Active; 'I' for Inactive)
REMARK    1  A    between atoms: O_4  and  C_14 
REMARK    2  A    between atoms: O_4  and  C_18 
REMARK    3  A    between atoms: O_5  and  C_17 
REMARK    4  A    between atoms: O_7  and  C_23 
REMARK    5  A    between atoms: N_8  and  CA_10 
REMARK    6  A    between atoms: C_9  and  CA_10 
REMARK    7  A    between atoms: C_9  and  C_11 
REMARK    8  A    between atoms: CA_10  and  C_17 
ROOT
ATOM      1  I   UNL d   1      -2.217   8.736   6.589  0.00  0.00    -0.042 I 
ATOM      2  I   UNL d   1      -6.520   4.603   5.305  0.00  0.00    -0.042 I 
ATOM      3  C   UNL d   1      -5.499   6.969   8.777  0.00  0.00    -0.053 A 
ATOM      4  C   UNL d   1      -6.100   6.084   7.896  0.00  0.00     0.028 A 
ATOM      5  C   UNL d   1      -4.397   7.721   8.404  0.00  0.00     0.028 A 
ATOM      6  C   UNL d   1      -4.475   6.698   6.217  0.00  0.00     0.109 A 
ATOM      7  C   UNL d   1      -3.881   7.584   7.115  0.00  0.00     0.042 A 
ATOM      8  C   UNL d   1      -5.585   5.948   6.607  0.00  0.00     0.042 A 
ENDROOT
BRANCH   6   9
ATOM      9  O   UNL d   1      -3.971   6.564   4.954  0.00  0.00    -0.308 OA
BRANCH   9  10
ATOM     10  C   UNL d   1      -3.135   5.490   4.710  0.00  0.00     0.077 A 
ATOM     11  C   UNL d   1      -2.475   4.892   5.770  0.00  0.00     0.058 A 
ATOM     12  C   UNL d   1      -1.633   3.809   5.523  0.00  0.00     0.042 A 
ATOM     13  I   UNL d   1      -0.645   2.924   7.138  0.00  0.00    -0.042 I 
ATOM     14  C   UNL d   1      -1.464   3.339   4.219  0.00  0.00     0.082 A 
ATOM     15  C   UNL d   1      -2.138   3.953   3.164  0.00  0.00     0.040 A 
ATOM     16  C   UNL d   1      -2.980   5.037   3.412  0.00  0.00     0.040 A 
BRANCH  14  17
ATOM     17  O   UNL d   1      -0.650   2.283   3.936  0.00  0.00    -0.359 OA
ATOM     18  H   UNL d   1      -0.015   2.542   3.247  0.00  0.00     0.217 HD
ENDBRANCH  14  17
ENDBRANCH   9  10
ENDBRANCH   6   9
BRANCH   3  19
ATOM     19  C   UNL d   1      -6.057   7.117  10.173  0.00  0.00     0.085 C 
BRANCH  19  20
ATOM     20  CA  UNL d   1      -6.053   5.798  10.961  0.00  0.00     0.318 C 
BRANCH  20  21
ATOM     21  N   UNL d   1      -6.685   5.998  12.263  0.00  0.00     0.093 N 
ATOM     22  H1  UNL d   1      -7.490   6.615  12.162  0.00  0.00     0.314 HD
ATOM     23  H2  UNL d   1      -6.041   6.483  12.889  0.00  0.00     0.314 HD
ENDBRANCH  20  21
BRANCH  20  24
ATOM     24  C   UNL d   1      -4.645   5.299  11.233  0.00  0.00     0.174 C 
ATOM     25  OXT UNL d   1      -4.175   4.257  10.794  0.00  0.00    -0.648 OA
BRANCH  24  26
ATOM     26  O   UNL d   1      -3.930   6.162  12.001  0.00  0.00    -0.775 OA
ATOM     27  H   UNL d   1      -4.451   6.960  12.233  0.00  0.00     0.167 HD
ENDBRANCH  24  26
ENDBRANCH  20  24
ENDBRANCH  19  20
ENDBRANCH   3  19
TORSDOF 8
ENDMDL
MODEL 5
REMARK VINA RESULT:      -0.0     22.973     25.079
REMARK  8 active torsions:
REMARK  status: ('A' for Active; 'I' for Inactive)
REMARK    1  A    between atoms: O_4  and  C_14 
REMARK    2  A    between atoms: O_4  and  C_18 
REMARK    3  A    between atoms: O_5  and  C_17 
REMARK    4  A    between atoms: O_7  and  C_23 
REMARK    5  A    between atoms: N_8  and  CA_10 
REMARK    6  A    between atoms: C_9  and  CA_10 
REMARK    7  A    between atoms: C_9  and  C_11 
REMARK    8  A    between atoms: CA_10  and  C_17 
ROOT
ATOM      1  I   UNL d   1      -1.099 -11.346  -6.074  0.00  0.00    -0.042 I 
ATOM      2  I   UNL d   1       4.322 -14.039  -6.855  0.00  0.00    -0.042 I 
ATOM      3  C   UNL d   1       3.012 -10.015  -5.972  0.00  0.00    -0.053 A 
ATOM      4  C   UNL d   1       3.775 -11.141  -6.236  0.00  0.00     0.028 A 
ATOM      5  C   UNL d   1       1.629 -10.075  -5.927  0.00  0.00     0.028 A 
ATOM      6  C   UNL d   1       1.744 -12.437  -6.419  0.00  0.00     0.109 A 
ATOM      7  C   UNL d   1       0.991 -11.295  -6.152  0.00  0.00     0.042 A 
ATOM      8  C   UNL d   1       3.136 -12.360  -6.461  0.00  0.00     0.042 A 
ENDROOT
BRANCH   6   9
ATOM      9  O   UNL d   1       1.119 -13.632  -6.638  0.00  0.00    -0.308 OA
BRANCH   9  10
ATOM     10  C   UNL d   1       0.945 -14.031  -7.951  0.00  0.00     0.077 A 
ATOM     11  C   UNL d   1       0.930 -13.074  -8.951  0.00  0.00     0.058 A 
ATOM     12  C   UNL d   1       0.755 -13.477 -10.275  0.00  0.00     0.042 A 
ATOM     13  I   UNL d   1       0.733 -12.015 -11.768  0.00  0.00    -0.042 I 
ATOM     14  C   UNL d   1       0.598 -14.830 -10.577  0.00  0.00     0.082 A 
ATOM     15  C   UNL d   1       0.617 -15.780  -9.557  0.00  0.00     0.040 A 
ATOM     16  C   UNL d   1       0.792 -15.376  -8.233  0.00  0.00     0.040 A 
BRANCH  14  17
ATOM     17  O   UNL d   1       0.424 -15.265 -11.858  0.00  0.00    -0.359 OA
ATOM     18  H   UNL d   1       1.275 -15.226 -12.329  0.00  0.00     0.217 HD
ENDBRANCH  14  17
ENDBRANCH   9  10
ENDBRANCH   6   9
BRANCH   3  19
ATOM     19  C   UNL d   1       3.703  -8.694  -5.728  0.00  0.00     0.085 C 
BRANCH  19  20
ATOM     20  CA  UNL d   1       4.570  -8.245  -6.915  0.00  0.00     0.318 C 
BRANCH  20  21
ATOM     21  N   UNL d   1       5.279  -7.015  -6.572  0.00  0.00     0.093 N 
ATOM     22  H1  UNL d   1       4.791  -6.538  -5.816  0.00  0.00     0.314 HD
ATOM     23  H2  UNL d   1       5.259  -6.372  -7.364  0.00  0.00     0.314 HD
ENDBRANCH  20  21
BRANCH  20  24
ATOM     24  C   UNL d   1       3.738  -7.939  -8.147  0.00  0.00     0.174 C 
ATOM     25  OXT UNL d   1       2.875  -7.072  -8.211  0.00  0.00    -0.648 OA
BRANCH  24  26
ATOM     26  O   UNL d   1       4.079  -8.717  -9.208  0.00  0.00    -0.775 OA
ATOM     27  H   UNL d   1       5.015  -8.586  -9.471  0.00  0.00     0.167 HD
ENDBRANCH  24  26
ENDBRANCH  20  24
ENDBRANCH  19  20
ENDBRANCH   3  19
TORSDOF 8
ENDMDL
MODEL 6
REMARK VINA RESULT:      -0.0     19.537     23.067
REMARK  8 active torsions:
REMARK  status: ('A' for Active; 'I' for Inactive)
REMARK    1  A    between atoms: O_4  and  C_14 
REMARK    2  A    between atoms: O_4  and  C_18 
REMARK    3  A    between atoms: O_5  and  C_17 
REMARK    4  A    between atoms: O_7  and  C_23 
REMARK    5  A    between atoms: N_8  and  CA_10 
REMARK    6  A    between atoms: C_9  and  CA_10 
REMARK    7  A    between atoms: C_9  and  C_11 
REMARK    8  A    between atoms: CA_10  and  C_17 
ROOT
ATOM      1  I   UNL d   1      -2.112   7.186   6.799  0.00  0.00    -0.042 I 
ATOM      2  I   UNL d   1       3.730   8.302   5.431  0.00  0.00    -0.042 I 
ATOM      3  C   UNL d   1      -0.045   8.889   3.406  0.00  0.00    -0.053 A 
ATOM      4  C   UNL d   1       1.301   8.857   3.735  0.00  0.00     0.028 A 
ATOM      5  C   UNL d   1      -1.012   8.415   4.277  0.00  0.00     0.028 A 
ATOM      6  C   UNL d   1       0.727   7.852   5.856  0.00  0.00     0.109 A 
ATOM      7  C   UNL d   1      -0.623   7.893   5.510  0.00  0.00     0.042 A 
ATOM      8  C   UNL d   1       1.689   8.334   4.969  0.00  0.00     0.042 A 
ENDROOT
BRANCH   6   9
ATOM      9  O   UNL d   1       1.108   7.342   7.065  0.00  0.00    -0.308 OA
BRANCH   9  10
ATOM     10  C   UNL d   1       1.568   6.038   7.091  0.00  0.00     0.077 A 
ATOM     11  C   UNL d   1       1.191   5.167   6.083  0.00  0.00     0.058 A 
ATOM     12  C   UNL d   1       1.655   3.853   6.110  0.00  0.00     0.042 A 
ATOM     13  I   UNL d   1       1.073   2.557   4.577  0.00  0.00    -0.042 I 
ATOM     14  C   UNL d   1       2.489   3.428   7.145  0.00  0.00     0.082 A 
ATOM     15  C   UNL d   1       2.858   4.319   8.153  0.00  0.00     0.040 A 
ATOM     16  C   UNL d   1       2.394   5.634   8.125  0.00  0.00     0.040 A 
BRANCH  14  17
ATOM     17  O   UNL d   1       2.964   2.152   7.208  0.00  0.00    -0.359 OA
ATOM     18  H   UNL d   1       2.921   1.749   6.324  0.00  0.00     0.217 HD
ENDBRANCH  14  17
ENDBRANCH   9  10
ENDBRANCH   6   9
BRANCH   3  19
ATOM     19  C   UNL d   1      -0.465   9.455   2.070  0.00  0.00     0.085 C 
BRANCH  19  20
ATOM     20  CA  UNL d   1       0.177   8.723   0.882  0.00  0.00     0.318 C 
BRANCH  20  21
ATOM     21  N   UNL d   1      -0.198   9.382  -0.367  0.00  0.00     0.093 N 
ATOM     22  H1  UNL d   1      -1.202   9.556  -0.374  0.00  0.00     0.314 HD
ATOM     23  H2  UNL d   1      -0.019   8.759  -1.154  0.00  0.00     0.314 HD
ENDBRANCH  20  21
BRANCH  20  24
ATOM     24  C   UNL d   1      -0.296   7.284   0.774  0.00  0.00     0.174 C 
ATOM     25  OXT UNL d   1      -1.461   6.941   0.616  0.00  0.00    -0.648 OA
BRANCH  24  26
ATOM     26  O   UNL d   1       0.731   6.396   0.835  0.00  0.00    -0.775 OA
ATOM     27  H   UNL d   1       1.456   6.635   0.219  0.00  0.00     0.167 HD
ENDBRANCH  24  26
ENDBRANCH  20  24
ENDBRANCH  19  20
ENDBRANCH   3  19
TORSDOF 8
ENDMDL
MODEL 7
REMARK VINA RESULT:      -0.0     33.403     35.634
REMARK  8 active torsions:
REMARK  status: ('A' for Active; 'I' for Inactive)
REMARK    1  A    between atoms: O_4  and  C_14 
REMARK    2  A    between atoms: O_4  and  C_18 
REMARK    3  A    between atoms: O_5  and  C_17 
REMARK    4  A    between atoms: O_7  and  C_23 
REMARK    5  A    between atoms: N_8  and  CA_10 
REMARK    6  A    between atoms: C_9  and  CA_10 
REMARK    7  A    between atoms: C_9  and  C_11 
REMARK    8  A    between atoms: CA_10  and  C_17 
ROOT
ATOM      1  I   UNL d   1       4.453  -0.087  19.406  0.00  0.00    -0.042 I 
ATOM      2  I   UNL d   1       2.426  -1.201  13.758  0.00  0.00    -0.042 I 
ATOM      3  C   UNL d   1       5.962  -2.278  15.999  0.00  0.00    -0.053 A 
ATOM      4  C   UNL d   1       5.002  -2.137  15.010  0.00  0.00     0.028 A 
ATOM      5  C   UNL d   1       5.805  -1.696  17.246  0.00  0.00     0.028 A 
ATOM      6  C   UNL d   1       3.680  -0.799  16.527  0.00  0.00     0.109 A 
ATOM      7  C   UNL d   1       4.656  -0.951  17.511  0.00  0.00     0.042 A 
ATOM      8  C   UNL d   1       3.853  -1.392  15.276  0.00  0.00     0.042 A 
ENDROOT
BRANCH   6   9
ATOM      9  O   UNL d   1       2.555  -0.070  16.787  0.00  0.00    -0.308 OA
BRANCH   9  10
ATOM     10  C   UNL d   1       2.521   1.236  16.334  0.00  0.00     0.077 A 
ATOM     11  C   UNL d   1       3.711   1.896  16.081  0.00  0.00     0.058 A 
ATOM     12  C   UNL d   1       3.676   3.213  15.624  0.00  0.00     0.042 A 
ATOM     13  I   UNL d   1       5.486   4.188  15.250  0.00  0.00    -0.042 I 
ATOM     14  C   UNL d   1       2.451   3.850  15.427  0.00  0.00     0.082 A 
ATOM     15  C   UNL d   1       1.261   3.170  15.686  0.00  0.00     0.040 A 
ATOM     16  C   UNL d   1       1.297   1.853  16.143  0.00  0.00     0.040 A 
BRANCH  14  17
ATOM     17  O   UNL d   1       2.373   5.137  14.981  0.00  0.00    -0.359 OA
ATOM     18  H   UNL d   1       1.741   5.630  15.532  0.00  0.00     0.217 HD
ENDBRANCH  14  17
ENDBRANCH   9  10
ENDBRANCH   6   9
BRANCH   3  19
ATOM     19  C   UNL d   1       7.206  -3.086  15.712  0.00  0.00     0.085 C 
BRANCH  19  20
ATOM     20  CA  UNL d   1       8.022  -2.527  14.536  0.00  0.00     0.318 C 
BRANCH  20  21
ATOM     21  N   UNL d   1       9.161  -3.402  14.265  0.00  0.00     0.093 N 
ATOM     22  H1  UNL d   1       9.811  -3.370  15.049  0.00  0.00     0.314 HD
ATOM     23  H2  UNL d   1       9.681  -3.053  13.459  0.00  0.00     0.314 HD
ENDBRANCH  20  21
BRANCH  20  24
ATOM     24  C   UNL d   1       8.592  -1.152  14.838  0.00  0.00     0.174 C 
ATOM     25  OXT UNL d   1       9.410  -0.911  15.716  0.00  0.00    -0.648 OA
BRANCH  24  26
ATOM     26  O   UNL d   1       8.118  -0.200  13.992  0.00  0.00    -0.775 OA
ATOM     27  H   UNL d   1       7.384  -0.538  13.436  0.00  0.00     0.167 HD
ENDBRANCH  24  26
ENDBRANCH  20  24
ENDBRANCH  19  20
ENDBRANCH   3  19
TORSDOF 8
ENDMDL
MODEL 8
REMARK VINA RESULT:      -0.0      8.746     10.209
REMARK  8 active torsions:
REMARK  status: ('A' for Active; 'I' for Inactive)
REMARK    1  A    between atoms: O_4  and  C_14 
REMARK    2  A    between atoms: O_4  and  C_18 
REMARK    3  A    between atoms: O_5  and  C_17 
REMARK    4  A    between atoms: O_7  and  C_23 
REMARK    5  A    between atoms: N_8  and  CA_10 
REMARK    6  A    between atoms: C_9  and  CA_10 
REMARK    7  A    between atoms: C_9  and  C_11 
REMARK    8  A    between atoms: CA_10  and  C_17 
ROOT
ATOM      1  I   UNL d   1     -12.645   1.963  -5.098  0.00  0.00    -0.042 I 
ATOM      2  I   UNL d   1     -17.206   2.383  -9.132  0.00  0.00    -0.042 I 
ATOM      3  C   UNL d   1     -13.725  -0.146  -8.713  0.00  0.00    -0.053 A 
ATOM      4  C   UNL d   1     -14.894   0.450  -9.158  0.00  0.00     0.028 A 
ATOM      5  C   UNL d   1     -13.088   0.284  -7.561  0.00  0.00     0.028 A 
ATOM      6  C   UNL d   1     -14.811   1.952  -7.267  0.00  0.00     0.109 A 
ATOM      7  C   UNL d   1     -13.635   1.341  -6.833  0.00  0.00     0.042 A 
ATOM      8  C   UNL d   1     -15.440   1.507  -8.430  0.00  0.00     0.042 A 
ENDROOT
BRANCH   6   9
ATOM      9  O   UNL d   1     -15.346   2.987  -6.554  0.00  0.00    -0.308 OA
BRANCH   9  10
ATOM     10  C   UNL d   1     -15.090   4.271  -7.000  0.00  0.00     0.077 A 
ATOM     11  C   UNL d   1     -13.985   4.500  -7.801  0.00  0.00     0.058 A 
ATOM     12  C   UNL d   1     -13.728   5.795  -8.251  0.00  0.00     0.042 A 
ATOM     13  I   UNL d   1     -12.053   6.118  -9.458  0.00  0.00    -0.042 I 
ATOM     14  C   UNL d   1     -14.579   6.841  -7.892  0.00  0.00     0.082 A 
ATOM     15  C   UNL d   1     -15.689   6.591  -7.085  0.00  0.00     0.040 A 
ATOM     16  C   UNL d   1     -15.946   5.295  -6.635  0.00  0.00     0.040 A 
BRANCH  14  17
ATOM     17  O   UNL d   1     -14.363   8.120  -8.310  0.00  0.00    -0.359 OA
ATOM     18  H   UNL d   1     -13.434   8.357  -8.151  0.00  0.00     0.217 HD
ENDBRANCH  14  17
ENDBRANCH   9  10
ENDBRANCH   6   9
BRANCH   3  19
ATOM     19  C   UNL d   1     -13.134  -1.291  -9.502  0.00  0.00     0.085 C 
BRANCH  19  20
ATOM     20  CA  UNL d   1     -12.781  -0.903 -10.946  0.00  0.00     0.318 C 
BRANCH  20  21
ATOM     21  N   UNL d   1     -12.296  -2.076 -11.669  0.00  0.00     0.093 N 
ATOM     22  H1  UNL d   1     -13.083  -2.576 -12.079  0.00  0.00     0.314 HD
ATOM     23  H2  UNL d   1     -11.862  -2.730 -11.016  0.00  0.00     0.314 HD
ENDBRANCH  20  21
BRANCH  20  24
ATOM     24  C   UNL d   1     -11.672   0.133 -11.004  0.00  0.00     0.174 C 
ATOM     25  OXT UNL d   1     -11.800   1.271 -11.439  0.00  0.00    -0.648 OA
BRANCH  24  26
ATOM     26  O   UNL d   1     -10.506  -0.327 -10.481  0.00  0.00    -0.775 OA
ATOM     27  H   UNL d   1     -10.661  -0.956  -9.744  0.00  0.00     0.167 HD
ENDBRANCH  24  26
ENDBRANCH  20  24
ENDBRANCH  19  20
ENDBRANCH   3  19
TORSDOF 8
ENDMDL
MODEL 9
REMARK VINA RESULT:      -0.0     11.598     13.803
REMARK  8 active torsions:
REMARK  status: ('A' for Active; 'I' for Inactive)
REMARK    1  A    between atoms: O_4  and  C_14 
REMARK    2  A    between atoms: O_4  and  C_18 
REMARK    3  A    between atoms: O_5  and  C_17 
REMARK    4  A    between atoms: O_7  and  C_23 
REMARK    5  A    between atoms: N_8  and  CA_10 
REMARK    6  A    between atoms: C_9  and  CA_10 
REMARK    7  A    between atoms: C_9  and  C_11 
REMARK    8  A    between atoms: CA_10  and  C_17 
ROOT
ATOM      1  I   UNL d   1       0.613  13.981 -10.612  0.00  0.00    -0.042 I 
ATOM      2  I   UNL d   1      -1.930  15.052 -16.056  0.00  0.00    -0.042 I 
ATOM      3  C   UNL d   1      -0.413  11.546 -14.032  0.00  0.00    -0.053 A 
ATOM      4  C   UNL d   1      -0.971  12.415 -14.956  0.00  0.00     0.028 A 
ATOM      5  C   UNL d   1       0.036  11.992 -12.800  0.00  0.00     0.028 A 
ATOM      6  C   UNL d   1      -0.634  14.234 -13.401  0.00  0.00     0.109 A 
ATOM      7  C   UNL d   1      -0.075  13.345 -12.483  0.00  0.00     0.042 A 
ATOM      8  C   UNL d   1      -1.082  13.769 -14.637  0.00  0.00     0.042 A 
ENDROOT
BRANCH   6   9
ATOM      9  O   UNL d   1      -0.744  15.559 -13.089  0.00  0.00    -0.308 OA
BRANCH   9  10
ATOM     10  C   UNL d   1       0.222  16.415 -13.587  0.00  0.00     0.077 A 
ATOM     11  C   UNL d   1       1.456  15.904 -13.949  0.00  0.00     0.058 A 
ATOM     12  C   UNL d   1       2.429  16.767 -14.452  0.00  0.00     0.042 A 
ATOM     13  I   UNL d   1       4.286  15.973 -14.990  0.00  0.00    -0.042 I 
ATOM     14  C   UNL d   1       2.153  18.128 -14.585  0.00  0.00     0.082 A 
ATOM     15  C   UNL d   1       0.903  18.625 -14.216  0.00  0.00     0.040 A 
ATOM     16  C   UNL d   1      -0.070  17.761 -13.713  0.00  0.00     0.040 A 
BRANCH  14  17
ATOM     17  O   UNL d   1       3.076  19.005 -15.072  0.00  0.00    -0.359 OA
ATOM     18  H   UNL d   1       3.880  18.519 -15.323  0.00  0.00     0.217 HD
ENDBRANCH  14  17
ENDBRANCH   9  10
ENDBRANCH   6   9
BRANCH   3  19
ATOM     19  C   UNL d   1      -0.293  10.080 -14.377  0.00  0.00     0.085 C 
BRANCH  19  20
ATOM     20  CA  UNL d   1       0.547   9.829 -15.639  0.00  0.00     0.318 C 
BRANCH  20  21
ATOM     21  N   UNL d   1       0.546   8.403 -15.959  0.00  0.00     0.093 N 
ATOM     22  H1  UNL d   1       1.456   8.135 -16.330  0.00  0.00     0.314 HD
ATOM     23  H2  UNL d   1      -0.124   8.218 -16.706  0.00  0.00     0.314 HD
ENDBRANCH  20  21
BRANCH  20  24
ATOM     24  C   UNL d   1       1.999  10.230 -15.447  0.00  0.00     0.174 C 
ATOM     25  OXT UNL d   1       2.565  11.126 -16.062  0.00  0.00    -0.648 OA
BRANCH  24  26
ATOM     26  O   UNL d   1       2.613   9.503 -14.477  0.00  0.00    -0.775 OA
ATOM     27  H   UNL d   1       3.161  10.067 -13.891  0.00  0.00     0.167 HD
ENDBRANCH  24  26
ENDBRANCH  20  24
ENDBRANCH  19  20
ENDBRANCH   3  19
TORSDOF 8
ENDMDL
