MODEL 1
REMARK VINA RESULT:       0.0      0.000      0.000
REMARK  2 active torsions:
REMARK  status: ('A' for Active; 'I' for Inactive)
REMARK    1  A    between atoms: O_1  and  C_7 
REMARK    2  A    between atoms: O_2  and  C_20 
ROOT
ATOM      1  C   UNL d   1       1.293   1.945   4.559  0.00  0.00    -0.014 C 
ATOM      2  C   UNL d   1       2.289   2.018   5.733  0.00  0.00     0.001 C 
ATOM      3  C   UNL d   1       2.790   0.636   6.151  0.00  0.00    -0.001 C 
ATOM      4  C   UNL d   1       3.539  -0.008   4.945  0.00  0.00     0.023 C 
ATOM      5  C   UNL d   1       0.943   3.441   4.436  0.00  0.00     0.126 C 
ATOM      6  C   UNL d   1       2.024   1.352   3.348  0.00  0.00     0.013 C 
ATOM      7  C   UNL d   1       1.570   2.894   6.756  0.00  0.00     0.008 C 
ATOM      8  C   UNL d   1       2.650  -0.018   3.672  0.00  0.00     0.010 C 
ATOM      9  C   UNL d   1       0.796   3.911   5.896  0.00  0.00     0.033 C 
ATOM     10  C   UNL d   1       3.736   0.692   7.352  0.00  0.00     0.010 C 
ATOM     11  C   UNL d   1       0.015   1.115   4.841  0.00  0.00     0.018 C 
ATOM     12  C   UNL d   1       4.139  -1.360   5.325  0.00  0.00    -0.047 A 
ATOM     13  C   UNL d   1       4.083  -0.724   7.804  0.00  0.00     0.039 C 
ATOM     14  C   UNL d   1       4.427  -1.662   6.674  0.00  0.00    -0.049 A 
ATOM     15  C   UNL d   1       4.501  -2.297   4.342  0.00  0.00     0.011 A 
ATOM     16  C   UNL d   1       5.012  -2.898   7.005  0.00  0.00     0.044 A 
ATOM     17  C   UNL d   1       5.089  -3.517   4.684  0.00  0.00     0.037 A 
ATOM     18  C   UNL d   1       5.341  -3.820   6.016  0.00  0.00     0.066 A 
ENDROOT
BRANCH   5  19
ATOM     19  O   UNL d   1      -0.234   3.675   3.689  0.00  0.00    -0.395 OA
ATOM     20  H   UNL d   1       0.036   3.998   2.811  0.00  0.00     0.210 HD
ENDBRANCH   5  19
BRANCH  18  21
ATOM     21  O   UNL d   1       5.911  -5.008   6.351  0.00  0.00    -0.361 OA
ATOM     22  H   UNL d   1       5.212  -5.681   6.432  0.00  0.00     0.217 HD
ENDBRANCH  18  21
TORSDOF 2
ENDMDL
MODEL 2
REMARK VINA RESULT:       0.0      6.483      9.441
REMARK  2 active torsions:
REMARK  status: ('A' for Active; 'I' for Inactive)
REMARK    1  A    between atoms: O_1  and  C_7 
REMARK    2  A    between atoms: O_2  and  C_20 
ROOT
ATOM      1  C   UNL d   1       2.712   5.441  14.081  0.00  0.00    -0.014 C 
ATOM      2  C   UNL d   1       2.527   3.995  13.579  0.00  0.00     0.001 C 
ATOM      3  C   UNL d   1       1.601   3.920  12.366  0.00  0.00    -0.001 C 
ATOM      4  C   UNL d   1       2.237   4.738  11.202  0.00  0.00     0.023 C 
ATOM      5  C   UNL d   1       3.609   5.166  15.304  0.00  0.00     0.126 C 
ATOM      6  C   UNL d   1       3.376   6.253  12.963  0.00  0.00     0.013 C 
ATOM      7  C   UNL d   1       2.166   3.222  14.845  0.00  0.00     0.008 C 
ATOM      8  C   UNL d   1       2.572   6.186  11.651  0.00  0.00     0.010 C 
ATOM      9  C   UNL d   1       2.986   3.913  15.950  0.00  0.00     0.033 C 
ATOM     10  C   UNL d   1       1.365   2.484  11.894  0.00  0.00     0.010 C 
ATOM     11  C   UNL d   1       1.405   6.148  14.521  0.00  0.00     0.018 C 
ATOM     12  C   UNL d   1       1.398   4.633   9.930  0.00  0.00    -0.047 A 
ATOM     13  C   UNL d   1       0.325   2.469  10.777  0.00  0.00     0.039 C 
ATOM     14  C   UNL d   1       0.535   3.535   9.729  0.00  0.00    -0.049 A 
ATOM     15  C   UNL d   1       1.530   5.573   8.893  0.00  0.00     0.011 A 
ATOM     16  C   UNL d   1      -0.205   3.433   8.537  0.00  0.00     0.044 A 
ATOM     17  C   UNL d   1       0.796   5.457   7.710  0.00  0.00     0.037 A 
ATOM     18  C   UNL d   1      -0.075   4.390   7.534  0.00  0.00     0.066 A 
ENDROOT
BRANCH   5  19
ATOM     19  O   UNL d   1       3.660   6.252  16.208  0.00  0.00    -0.395 OA
ATOM     20  H   UNL d   1       3.060   6.940  15.872  0.00  0.00     0.210 HD
ENDBRANCH   5  19
BRANCH  18  21
ATOM     21  O   UNL d   1      -0.793   4.275   6.385  0.00  0.00    -0.361 OA
ATOM     22  H   UNL d   1      -1.683   4.641   6.531  0.00  0.00     0.217 HD
ENDBRANCH  18  21
TORSDOF 2
ENDMDL
MODEL 3
REMARK VINA RESULT:       0.0     13.723     17.617
REMARK  2 active torsions:
REMARK  status: ('A' for Active; 'I' for Inactive)
REMARK    1  A    between atoms: O_1  and  C_7 
REMARK    2  A    between atoms: O_2  and  C_20 
ROOT
ATOM      1  C   UNL d   1       1.844  10.988  14.260  0.00  0.00    -0.014 C 
ATOM      2  C   UNL d   1       2.107  11.796  15.546  0.00  0.00     0.001 C 
ATOM      3  C   UNL d   1       2.280  13.289  15.264  0.00  0.00    -0.001 C 
ATOM      4  C   UNL d   1       0.961  13.833  14.634  0.00  0.00     0.023 C 
ATOM      5  C   UNL d   1       1.788   9.571  14.865  0.00  0.00     0.126 C 
ATOM      6  C   UNL d   1       0.527  11.480  13.648  0.00  0.00     0.013 C 
ATOM      7  C   UNL d   1       3.238  11.028  16.225  0.00  0.00     0.008 C 
ATOM      8  C   UNL d   1       0.547  13.000  13.391  0.00  0.00     0.010 C 
ATOM      9  C   UNL d   1       2.943   9.555  15.885  0.00  0.00     0.033 C 
ATOM     10  C   UNL d   1       2.597  14.092  16.526  0.00  0.00     0.010 C 
ATOM     11  C   UNL d   1       2.967  11.075  13.196  0.00  0.00     0.018 C 
ATOM     12  C   UNL d   1       1.040  15.341  14.406  0.00  0.00    -0.047 A 
ATOM     13  C   UNL d   1       2.897  15.542  16.155  0.00  0.00     0.039 C 
ATOM     14  C   UNL d   1       1.928  16.135  15.162  0.00  0.00    -0.049 A 
ATOM     15  C   UNL d   1       0.172  15.985  13.507  0.00  0.00     0.011 A 
ATOM     16  C   UNL d   1       1.964  17.527  14.965  0.00  0.00     0.044 A 
ATOM     17  C   UNL d   1       0.211  17.369  13.327  0.00  0.00     0.037 A 
ATOM     18  C   UNL d   1       1.110  18.141  14.052  0.00  0.00     0.066 A 
ENDROOT
BRANCH   5  19
ATOM     19  O   UNL d   1       1.929   8.550  13.896  0.00  0.00    -0.395 OA
ATOM     20  H   UNL d   1       1.437   7.774  14.216  0.00  0.00     0.210 HD
ENDBRANCH   5  19
BRANCH  18  21
ATOM     21  O   UNL d   1       1.153  19.488  13.877  0.00  0.00    -0.361 OA
ATOM     22  H   UNL d   1       0.508  19.738  13.192  0.00  0.00     0.217 HD
ENDBRANCH  18  21
TORSDOF 2
ENDMDL
MODEL 4
REMARK VINA RESULT:       0.0      7.847     10.620
REMARK  2 active torsions:
REMARK  status: ('A' for Active; 'I' for Inactive)
REMARK    1  A    between atoms: O_1  and  C_7 
REMARK    2  A    between atoms: O_2  and  C_20 
ROOT
ATOM      1  C   UNL d   1       2.712   5.441  14.081  0.00  0.00    -0.014 C 
ATOM      2  C   UNL d   1       2.337   4.529  12.896  0.00  0.00     0.001 C 
ATOM      3  C   UNL d   1       1.588   5.287  11.800  0.00  0.00    -0.001 C 
ATOM      4  C   UNL d   1       2.516   6.411  11.247  0.00  0.00     0.023 C 
ATOM      5  C   UNL d   1       3.368   4.393  15.002  0.00  0.00     0.126 C 
ATOM      6  C   UNL d   1       3.660   6.530  13.565  0.00  0.00     0.013 C 
ATOM      7  C   UNL d   1       1.672   3.330  13.565  0.00  0.00     0.008 C 
ATOM      8  C   UNL d   1       3.044   7.317  12.392  0.00  0.00     0.010 C 
ATOM      9  C   UNL d   1       2.445   3.165  14.887  0.00  0.00     0.033 C 
ATOM     10  C   UNL d   1       1.162   4.380  10.644  0.00  0.00     0.010 C 
ATOM     11  C   UNL d   1       1.508   6.106  14.795  0.00  0.00     0.018 C 
ATOM     12  C   UNL d   1       1.854   7.154  10.088  0.00  0.00    -0.047 A 
ATOM     13  C   UNL d   1       0.299   5.166   9.660  0.00  0.00     0.039 C 
ATOM     14  C   UNL d   1       0.841   6.534   9.326  0.00  0.00    -0.049 A 
ATOM     15  C   UNL d   1       2.296   8.429   9.696  0.00  0.00     0.011 A 
ATOM     16  C   UNL d   1       0.265   7.217   8.239  0.00  0.00     0.044 A 
ATOM     17  C   UNL d   1       1.722   9.093   8.609  0.00  0.00     0.037 A 
ATOM     18  C   UNL d   1       0.703   8.489   7.883  0.00  0.00     0.066 A 
ENDROOT
BRANCH   5  19
ATOM     19  O   UNL d   1       3.492   4.833  16.340  0.00  0.00    -0.395 OA
ATOM     20  H   UNL d   1       4.054   5.627  16.336  0.00  0.00     0.210 HD
ENDBRANCH   5  19
BRANCH  18  21
ATOM     21  O   UNL d   1       0.141   9.134   6.827  0.00  0.00    -0.361 OA
ATOM     22  H   UNL d   1      -0.183   8.473   6.190  0.00  0.00     0.217 HD
ENDBRANCH  18  21
TORSDOF 2
ENDMDL
MODEL 5
REMARK VINA RESULT:       0.0     12.784     14.925
REMARK  2 active torsions:
REMARK  status: ('A' for Active; 'I' for Inactive)
REMARK    1  A    between atoms: O_1  and  C_7 
REMARK    2  A    between atoms: O_2  and  C_20 
ROOT
ATOM      1  C   UNL d   1     -10.964   5.734   7.578  0.00  0.00    -0.014 C 
ATOM      2  C   UNL d   1      -9.521   5.204   7.692  0.00  0.00     0.001 C 
ATOM      3  C   UNL d   1      -8.601   6.187   8.416  0.00  0.00    -0.001 C 
ATOM      4  C   UNL d   1      -9.135   6.394   9.865  0.00  0.00     0.023 C 
ATOM      5  C   UNL d   1     -11.589   4.580   6.769  0.00  0.00     0.126 C 
ATOM      6  C   UNL d   1     -11.523   5.905   8.996  0.00  0.00     0.013 C 
ATOM      7  C   UNL d   1      -9.185   4.778   6.265  0.00  0.00     0.008 C 
ATOM      8  C   UNL d   1     -10.629   6.817   9.858  0.00  0.00     0.010 C 
ATOM      9  C   UNL d   1     -10.520   4.243   5.712  0.00  0.00     0.033 C 
ATOM     10  C   UNL d   1      -7.153   5.696   8.484  0.00  0.00     0.010 C 
ATOM     11  C   UNL d   1     -11.107   7.071   6.807  0.00  0.00     0.018 C 
ATOM     12  C   UNL d   1      -8.209   7.304  10.671  0.00  0.00    -0.047 A 
ATOM     13  C   UNL d   1      -6.266   6.781   9.088  0.00  0.00     0.039 C 
ATOM     14  C   UNL d   1      -6.851   7.440  10.313  0.00  0.00    -0.049 A 
ATOM     15  C   UNL d   1      -8.660   7.953  11.833  0.00  0.00     0.011 A 
ATOM     16  C   UNL d   1      -6.001   8.253  11.086  0.00  0.00     0.044 A 
ATOM     17  C   UNL d   1      -7.805   8.751  12.596  0.00  0.00     0.037 A 
ATOM     18  C   UNL d   1      -6.476   8.906  12.220  0.00  0.00     0.066 A 
ENDROOT
BRANCH   5  19
ATOM     19  O   UNL d   1     -12.824   4.928   6.174  0.00  0.00    -0.395 OA
ATOM     20  H   UNL d   1     -13.503   4.339   6.546  0.00  0.00     0.210 HD
ENDBRANCH   5  19
BRANCH  18  21
ATOM     21  O   UNL d   1      -5.642   9.684  12.959  0.00  0.00    -0.361 OA
ATOM     22  H   UNL d   1      -4.923   9.130  13.311  0.00  0.00     0.217 HD
ENDBRANCH  18  21
TORSDOF 2
ENDMDL
MODEL 6
REMARK VINA RESULT:       0.0     14.831     17.954
REMARK  2 active torsions:
REMARK  status: ('A' for Active; 'I' for Inactive)
REMARK    1  A    between atoms: O_1  and  C_7 
REMARK    2  A    between atoms: O_2  and  C_20 
ROOT
ATOM      1  C   UNL d   1     -10.105   6.455  12.438  0.00  0.00    -0.014 C 
ATOM      2  C   UNL d   1      -8.722   7.000  12.848  0.00  0.00     0.001 C 
ATOM      3  C   UNL d   1      -8.799   7.898  14.083  0.00  0.00    -0.001 C 
ATOM      4  C   UNL d   1      -9.340   7.057  15.278  0.00  0.00     0.023 C 
ATOM      5  C   UNL d   1      -9.699   5.676  11.172  0.00  0.00     0.126 C 
ATOM      6  C   UNL d   1     -10.636   5.589  13.587  0.00  0.00     0.013 C 
ATOM      7  C   UNL d   1      -8.162   7.566  11.545  0.00  0.00     0.008 C 
ATOM      8  C   UNL d   1     -10.683   6.366  14.917  0.00  0.00     0.010 C 
ATOM      9  C   UNL d   1      -8.699   6.609  10.464  0.00  0.00     0.033 C 
ATOM     10  C   UNL d   1      -7.441   8.490  14.464  0.00  0.00     0.010 C 
ATOM     11  C   UNL d   1     -11.154   7.542  12.089  0.00  0.00     0.018 C 
ATOM     12  C   UNL d   1      -9.361   7.877  16.566  0.00  0.00    -0.047 A 
ATOM     13  C   UNL d   1      -7.612   9.484  15.610  0.00  0.00     0.039 C 
ATOM     14  C   UNL d   1      -8.509   8.992  16.720  0.00  0.00    -0.049 A 
ATOM     15  C   UNL d   1     -10.158   7.494  17.659  0.00  0.00     0.011 A 
ATOM     16  C   UNL d   1      -8.514   9.717  17.925  0.00  0.00     0.044 A 
ATOM     17  C   UNL d   1     -10.147   8.216  18.854  0.00  0.00     0.037 A 
ATOM     18  C   UNL d   1      -9.329   9.331  18.986  0.00  0.00     0.066 A 
ENDROOT
BRANCH   5  19
ATOM     19  O   UNL d   1     -10.799   5.359  10.341  0.00  0.00    -0.395 OA
ATOM     20  H   UNL d   1     -11.130   6.192   9.963  0.00  0.00     0.210 HD
ENDBRANCH   5  19
BRANCH  18  21
ATOM     21  O   UNL d   1      -9.319  10.039  20.147  0.00  0.00    -0.361 OA
ATOM     22  H   UNL d   1      -8.528   9.794  20.658  0.00  0.00     0.217 HD
ENDBRANCH  18  21
TORSDOF 2
ENDMDL
MODEL 7
REMARK VINA RESULT:       0.0     13.922     15.678
REMARK  2 active torsions:
REMARK  status: ('A' for Active; 'I' for Inactive)
REMARK    1  A    between atoms: O_1  and  C_7 
REMARK    2  A    between atoms: O_2  and  C_20 
ROOT
ATOM      1  C   UNL d   1      -8.968   6.626  10.948  0.00  0.00    -0.014 C 
ATOM      2  C   UNL d   1      -7.478   6.925  11.202  0.00  0.00     0.001 C 
ATOM      3  C   UNL d   1      -7.235   7.507  12.594  0.00  0.00    -0.001 C 
ATOM      4  C   UNL d   1      -7.687   6.459  13.657  0.00  0.00     0.023 C 
ATOM      5  C   UNL d   1      -8.879   6.136   9.489  0.00  0.00     0.126 C 
ATOM      6  C   UNL d   1      -9.421   5.565  11.958  0.00  0.00     0.013 C 
ATOM      7  C   UNL d   1      -7.062   7.729   9.973  0.00  0.00     0.008 C 
ATOM      8  C   UNL d   1      -9.150   6.003  13.410  0.00  0.00     0.010 C 
ATOM      9  C   UNL d   1      -7.888   7.113   8.828  0.00  0.00     0.033 C 
ATOM     10  C   UNL d   1      -5.767   7.860  12.836  0.00  0.00     0.010 C 
ATOM     11  C   UNL d   1      -9.905   7.858  11.045  0.00  0.00     0.018 C 
ATOM     12  C   UNL d   1      -7.392   6.947  15.074  0.00  0.00    -0.047 A 
ATOM     13  C   UNL d   1      -5.618   8.564  14.182  0.00  0.00     0.039 C 
ATOM     14  C   UNL d   1      -6.384   7.909  15.305  0.00  0.00    -0.049 A 
ATOM     15  C   UNL d   1      -8.048   6.391  16.185  0.00  0.00     0.011 A 
ATOM     16  C   UNL d   1      -6.099   8.323  16.619  0.00  0.00     0.044 A 
ATOM     17  C   UNL d   1      -7.750   6.804  17.486  0.00  0.00     0.037 A 
ATOM     18  C   UNL d   1      -6.779   7.774  17.703  0.00  0.00     0.066 A 
ENDROOT
BRANCH   5  19
ATOM     19  O   UNL d   1     -10.129   6.130   8.829  0.00  0.00    -0.395 OA
ATOM     20  H   UNL d   1     -10.405   7.057   8.717  0.00  0.00     0.210 HD
ENDBRANCH   5  19
BRANCH  18  21
ATOM     21  O   UNL d   1      -6.489   8.180  18.967  0.00  0.00    -0.361 OA
ATOM     22  H   UNL d   1      -6.784   7.496  19.594  0.00  0.00     0.217 HD
ENDBRANCH  18  21
TORSDOF 2
ENDMDL
MODEL 8
REMARK VINA RESULT:       0.0     14.108     16.655
REMARK  2 active torsions:
REMARK  status: ('A' for Active; 'I' for Inactive)
REMARK    1  A    between atoms: O_1  and  C_7 
REMARK    2  A    between atoms: O_2  and  C_20 
ROOT
ATOM      1  C   UNL d   1     -10.713   5.655  10.308  0.00  0.00    -0.014 C 
ATOM      2  C   UNL d   1      -9.215   5.717  10.669  0.00  0.00     0.001 C 
ATOM      3  C   UNL d   1      -8.923   6.762  11.745  0.00  0.00    -0.001 C 
ATOM      4  C   UNL d   1      -9.697   6.372  13.041  0.00  0.00     0.023 C 
ATOM      5  C   UNL d   1     -10.656   4.595   9.192  0.00  0.00     0.126 C 
ATOM      6  C   UNL d   1     -11.488   5.232  11.562  0.00  0.00     0.013 C 
ATOM      7  C   UNL d   1      -8.527   5.829   9.311  0.00  0.00     0.008 C 
ATOM      8  C   UNL d   1     -11.209   6.169  12.752  0.00  0.00     0.010 C 
ATOM      9  C   UNL d   1      -9.406   4.977   8.376  0.00  0.00     0.033 C 
ATOM     10  C   UNL d   1      -7.432   6.871  12.069  0.00  0.00     0.010 C 
ATOM     11  C   UNL d   1     -11.305   6.980   9.764  0.00  0.00     0.018 C 
ATOM     12  C   UNL d   1      -9.380   7.334  14.184  0.00  0.00    -0.047 A 
ATOM     13  C   UNL d   1      -7.196   8.024  13.041  0.00  0.00     0.039 C 
ATOM     14  C   UNL d   1      -8.177   8.072  14.187  0.00  0.00    -0.049 A 
ATOM     15  C   UNL d   1     -10.229   7.442  15.299  0.00  0.00     0.011 A 
ATOM     16  C   UNL d   1      -7.882   8.928  15.264  0.00  0.00     0.044 A 
ATOM     17  C   UNL d   1      -9.920   8.288  16.367  0.00  0.00     0.037 A 
ATOM     18  C   UNL d   1      -8.750   9.035  16.347  0.00  0.00     0.066 A 
ENDROOT
BRANCH   5  19
ATOM     19  O   UNL d   1     -11.820   4.574   8.389  0.00  0.00    -0.395 OA
ATOM     20  H   UNL d   1     -11.655   3.963   7.650  0.00  0.00     0.210 HD
ENDBRANCH   5  19
BRANCH  18  21
ATOM     21  O   UNL d   1      -8.448   9.862  17.383  0.00  0.00    -0.361 OA
ATOM     22  H   UNL d   1      -7.592  10.291  17.206  0.00  0.00     0.217 HD
ENDBRANCH  18  21
TORSDOF 2
ENDMDL
MODEL 9
REMARK VINA RESULT:       0.0     11.729     15.663
REMARK  2 active torsions:
REMARK  status: ('A' for Active; 'I' for Inactive)
REMARK    1  A    between atoms: O_1  and  C_7 
REMARK    2  A    between atoms: O_2  and  C_20 
ROOT
ATOM      1  C   UNL d   1      -9.709   3.361   8.142  0.00  0.00    -0.014 C 
ATOM      2  C   UNL d   1      -8.494   4.104   8.730  0.00  0.00     0.001 C 
ATOM      3  C   UNL d   1      -8.828   5.546   9.110  0.00  0.00    -0.001 C 
ATOM      4  C   UNL d   1      -9.937   5.529  10.206  0.00  0.00     0.023 C 
ATOM      5  C   UNL d   1      -9.040   2.011   7.814  0.00  0.00     0.126 C 
ATOM      6  C   UNL d   1     -10.797   3.296   9.221  0.00  0.00     0.013 C 
ATOM      7  C   UNL d   1      -7.387   3.836   7.714  0.00  0.00     0.008 C 
ATOM      8  C   UNL d   1     -11.165   4.696   9.748  0.00  0.00     0.010 C 
ATOM      9  C   UNL d   1      -7.676   2.407   7.218  0.00  0.00     0.033 C 
ATOM     10  C   UNL d   1      -7.614   6.310   9.643  0.00  0.00     0.010 C 
ATOM     11  C   UNL d   1     -10.300   3.995   6.857  0.00  0.00     0.018 C 
ATOM     12  C   UNL d   1     -10.258   6.941  10.690  0.00  0.00    -0.047 A 
ATOM     13  C   UNL d   1      -7.982   7.775   9.866  0.00  0.00     0.039 C 
ATOM     14  C   UNL d   1      -9.307   7.976  10.560  0.00  0.00    -0.049 A 
ATOM     15  C   UNL d   1     -11.463   7.225  11.355  0.00  0.00     0.011 A 
ATOM     16  C   UNL d   1      -9.603   9.264  11.043  0.00  0.00     0.044 A 
ATOM     17  C   UNL d   1     -11.741   8.506  11.838  0.00  0.00     0.037 A 
ATOM     18  C   UNL d   1     -10.813   9.527  11.677  0.00  0.00     0.066 A 
ENDROOT
BRANCH   5  19
ATOM     19  O   UNL d   1      -9.796   1.223   6.916  0.00  0.00    -0.395 OA
ATOM     20  H   UNL d   1     -10.154   0.470   7.419  0.00  0.00     0.210 HD
ENDBRANCH   5  19
BRANCH  18  21
ATOM     21  O   UNL d   1     -11.082  10.776  12.144  0.00  0.00    -0.361 OA
ATOM     22  H   UNL d   1     -11.716  11.207  11.543  0.00  0.00     0.217 HD
ENDBRANCH  18  21
TORSDOF 2
ENDMDL
