REMARK  6 active torsions:
REMARK  status: ('A' for Active; 'I' for Inactive)
REMARK    1  A    between atoms: N_8  and  C_18 
REMARK    2  A    between atoms: N_9  and  N_11 
REMARK       I    between atoms: N_9  and  C_22 
REMARK    3  A    between atoms: N_10  and  C_25 
REMARK       I    between atoms: N_11  and  C_27 
REMARK    4  A    between atoms: N_12  and  C_26 
REMARK       I    between atoms: N_12  and  C_27 
REMARK    5  A    between atoms: C_19  and  C_22 
REMARK    6  A    between atoms: C_28  and  C_33 
ROOT
ATOM      1  O   UNL d   1      -1.211   3.635  -1.359  0.00  0.00    -0.267 OA
ATOM      2  N   UNL d   1      -1.598   3.349   0.913  0.00  0.00    -0.263 N 
ATOM      3  C   UNL d   1      -0.829   3.651  -0.193  0.00  0.00     0.260 C 
ATOM      4  H   UNL d   1      -1.259   3.372   1.869  0.00  0.00     0.190 HD
ENDROOT
BRANCH   2   5
ATOM      5  N   UNL d   1      -2.912   2.996   0.731  0.00  0.00    -0.248 N 
ATOM      6  C   UNL d   1      -3.237   1.652   0.549  0.00  0.00     0.339 C 
ATOM      7  O   UNL d   1      -2.400   0.752   0.543  0.00  0.00    -0.245 OA
ATOM      8  N   UNL d   1      -4.617   1.507   0.384  0.00  0.00    -0.308 N 
ATOM      9  H   UNL d   1      -5.170   2.360   0.417  0.00  0.00     0.170 HD
ATOM     10  H   UNL d   1      -3.598   3.742   0.743  0.00  0.00     0.192 HD
BRANCH   8  11
ATOM     11  C   UNL d   1      -5.347   0.314   0.175  0.00  0.00     0.037 A 
ATOM     12  C   UNL d   1      -4.682  -0.910   0.114  0.00  0.00     0.045 A 
ATOM     13  C   UNL d   1      -5.403  -2.086  -0.092  0.00  0.00     0.050 A 
ATOM     14  C   UNL d   1      -6.789  -2.038  -0.237  0.00  0.00     0.016 A 
ATOM     15  C   UNL d   1      -7.455  -0.814  -0.175  0.00  0.00     0.003 A 
ATOM     16  C   UNL d   1      -6.734   0.362   0.031  0.00  0.00     0.029 A 
BRANCH  13  17
ATOM     17  C   UNL d   1      -4.691  -3.395  -0.158  0.00  0.00     0.417 C 
ATOM     18  F   UNL d   1      -3.767  -3.466  -1.162  0.00  0.00    -0.166 F 
ATOM     19  F   UNL d   1      -5.522  -4.460  -0.364  0.00  0.00    -0.166 F 
ATOM     20  F   UNL d   1      -4.009  -3.681   0.989  0.00  0.00    -0.166 F 
ENDBRANCH  13  17
ENDBRANCH   8  11
ENDBRANCH   2   5
BRANCH   3  21
ATOM     21  C   UNL d   1       0.559   4.010   0.193  0.00  0.00     0.078 C 
ATOM     22  C   UNL d   1       1.595   3.292  -0.264  0.00  0.00    -0.071 C 
ATOM     23  C   UNL d   1       3.024   3.600   0.087  0.00  0.00     0.054 C 
ATOM     24  C   UNL d   1       1.432   2.094  -1.156  0.00  0.00     0.054 C 
ATOM     25  C   UNL d   1       3.709   2.368   0.681  0.00  0.00     0.127 C 
ATOM     26  N   UNL d   1       3.522   1.195  -0.191  0.00  0.00    -0.380 N 
ATOM     27  C   UNL d   1       2.135   0.872  -0.559  0.00  0.00     0.127 C 
BRANCH  26  28
ATOM     28  C   UNL d   1       4.468   0.168  -0.101  0.00  0.00     0.030 A 
ATOM     29  C   UNL d   1       4.069  -1.118   0.265  0.00  0.00     0.032 A 
ATOM     30  C   UNL d   1       5.011  -2.142   0.354  0.00  0.00     0.038 A 
ATOM     31  C   UNL d   1       6.354  -1.880   0.078  0.00  0.00     0.103 A 
ATOM     32  C   UNL d   1       6.753  -0.595  -0.287  0.00  0.00     0.038 A 
ATOM     33  C   UNL d   1       5.810   0.429  -0.377  0.00  0.00     0.032 A 
BRANCH  31  34
ATOM     34  N   UNL d   1       7.314  -2.922   0.170  0.00  0.00    -0.116 N 
ATOM     35  O   UNL d   1       8.516  -2.666  -0.082  0.00  0.00    -0.532 OA
ATOM     36  O   UNL d   1       6.934  -4.072   0.500  0.00  0.00    -0.532 OA
ENDBRANCH  31  34
ENDBRANCH  26  28
ENDBRANCH   3  21
TORSDOF 6
