@<TRIPOS>MOLECULE
2765122
 53 55 0 0 0
SMALL
GASTEIGER

@<TRIPOS>ATOM
      1 F          -3.7673   -3.4656   -1.1618 F       1  UNL1       -0.1659
      2 F          -5.5220   -4.4602   -0.3644 F       1  UNL1       -0.1659
      3 F          -4.0087   -3.6807    0.9886 F       1  UNL1       -0.1659
      4 O          -1.2109    3.6346   -1.3585 O.2     1  UNL1       -0.2693
      5 O           8.5157   -2.6658   -0.0819 O.co2   1  UNL1       -0.5760
      6 O           6.9336   -4.0719    0.5004 O.2     1  UNL1        0.0414
      7 O          -2.4000    0.7518    0.5432 O.2     1  UNL1       -0.2509
      8 N           3.5216    1.1954   -0.1908 N.pl3   1  UNL1       -0.3293
      9 N          -1.5980    3.3495    0.9131 N.am    1  UNL1       -0.2297
     10 N           7.3136   -2.9225    0.1697 N.pl3   1  UNL1        0.0796
     11 N          -2.9118    2.9958    0.7307 N.am    1  UNL1       -0.2177
     12 N          -4.6170    1.5068    0.3842 N.am    1  UNL1       -0.2683
     13 C           3.7087    2.3679    0.6811 C.3     1  UNL1        0.0159
     14 C           2.1351    0.8718   -0.5593 C.3     1  UNL1        0.0159
     15 C           3.0240    3.6005    0.0868 C.3     1  UNL1       -0.0155
     16 C           1.4316    2.0937   -1.1562 C.3     1  UNL1       -0.0155
     17 C           1.5949    3.2922   -0.2637 C.2     1  UNL1       -0.0616
     18 C           4.4680    0.1677   -0.1005 C.ar    1  UNL1        0.0301
     19 C           0.5593    4.0099    0.1925 C.2     1  UNL1        0.0009
     20 C           4.0687   -1.1179    0.2648 C.ar    1  UNL1       -0.0343
     21 C           5.8100    0.4293   -0.3766 C.ar    1  UNL1       -0.0343
     22 C          -0.8290    3.6510   -0.1928 C.2     1  UNL1        0.2530
     23 C           5.0115   -2.1420    0.3539 C.ar    1  UNL1        0.0173
     24 C           6.7527   -0.5948   -0.2874 C.ar    1  UNL1        0.0173
     25 C           6.3535   -1.8804    0.0779 C.ar    1  UNL1        0.2733
     26 C          -5.3471    0.3140    0.1755 C.ar    1  UNL1        0.0353
     27 C          -3.2371    1.6517    0.5492 C.2     1  UNL1        0.3202
     28 C          -5.4028   -2.0864   -0.0922 C.ar    1  UNL1        0.0566
     29 C          -4.6817   -0.9104    0.1141 C.ar    1  UNL1       -0.0288
     30 C          -6.7337    0.3622    0.0308 C.ar    1  UNL1       -0.0404
     31 C          -6.7893   -2.0382   -0.2368 C.ar    1  UNL1       -0.0500
     32 C          -7.4548   -0.8138   -0.1753 C.ar    1  UNL1       -0.0595
     33 C          -4.6915   -3.3953   -0.1583 C.3     1  UNL1        0.4175
     34 H           4.7690    2.6058    0.8248 H       1  UNL1        0.0467
     35 H           3.2938    2.1456    1.6730 H       1  UNL1        0.0467
     36 H           2.1096    0.0720   -1.3102 H       1  UNL1        0.0467
     37 H           1.5869    0.5236    0.3257 H       1  UNL1        0.0467
     38 H           3.0944    4.4334    0.7959 H       1  UNL1        0.0325
     39 H           3.5503    3.9103   -0.8250 H       1  UNL1        0.0325
     40 H           1.8790    2.3291   -2.1308 H       1  UNL1        0.0325
     41 H           0.3944    1.8120   -1.3519 H       1  UNL1        0.0325
     42 H           0.6912    4.8426    0.8746 H       1  UNL1        0.0669
     43 H           3.0351   -1.3536    0.5019 H       1  UNL1        0.0638
     44 H           6.1382    1.4211   -0.6772 H       1  UNL1        0.0638
     45 H           4.6652   -3.1305    0.6448 H       1  UNL1        0.0686
     46 H           7.7888   -0.3552   -0.5126 H       1  UNL1        0.0686
     47 H          -1.2591    3.3718    1.8694 H       1  UNL1        0.1731
     48 H          -3.5982    3.7420    0.7432 H       1  UNL1        0.1744
     49 H          -5.1697    2.3599    0.4169 H       1  UNL1        0.1564
     50 H          -3.6109   -1.0170    0.2178 H       1  UNL1        0.0642
     51 H          -7.2645    1.3096    0.0767 H       1  UNL1        0.0636
     52 H          -7.3683   -2.9433   -0.3981 H       1  UNL1        0.0623
     53 H          -8.5344   -0.7761   -0.2879 H       1  UNL1        0.0618
@<TRIPOS>BOND
     1     1    33    1
     2     2    33    1
     3     3    33    1
     4     4    22    2
     5     5    10    1
     6     6    10    2
     7     7    27    2
     8     8    13    1
     9     8    14    1
    10     8    18    1
    11     9    11    1
    12     9    22   am
    13     9    47    1
    14    10    25    1
    15    11    27   am
    16    11    48    1
    17    12    26    1
    18    12    27   am
    19    12    49    1
    20    13    15    1
    21    13    34    1
    22    13    35    1
    23    14    16    1
    24    14    36    1
    25    14    37    1
    26    15    17    1
    27    15    38    1
    28    15    39    1
    29    16    17    1
    30    16    40    1
    31    16    41    1
    32    17    19    2
    33    18    20   ar
    34    18    21   ar
    35    19    22    1
    36    19    42    1
    37    20    23   ar
    38    20    43    1
    39    21    24   ar
    40    21    44    1
    41    23    25   ar
    42    23    45    1
    43    24    25   ar
    44    24    46    1
    45    26    29   ar
    46    26    30   ar
    47    28    29   ar
    48    28    31   ar
    49    28    33    1
    50    29    50    1
    51    30    32   ar
    52    30    51    1
    53    31    32   ar
    54    31    52    1
    55    32    53    1
