REMARK  1 active torsions:
REMARK  status: ('A' for Active; 'I' for Inactive)
REMARK    1  A    between atoms: O_1  and  C_13 
ROOT
ATOM      1  O   UNL d   1       5.672  -0.303   0.364  0.00  0.00    -0.298 OA
ATOM      2  C   UNL d   1      -0.634   0.807   0.170  0.00  0.00    -0.005 C 
ATOM      3  C   UNL d   1       0.176  -0.429  -0.333  0.00  0.00    -0.002 C 
ATOM      4  C   UNL d   1      -2.064   0.706  -0.371  0.00  0.00     0.001 C 
ATOM      5  C   UNL d   1      -2.789  -0.573   0.090  0.00  0.00    -0.014 C 
ATOM      6  C   UNL d   1       1.681  -0.388   0.128  0.00  0.00    -0.036 C 
ATOM      7  C   UNL d   1       2.299   0.979  -0.307  0.00  0.00     0.001 C 
ATOM      8  C   UNL d   1      -0.550  -1.767  -0.019  0.00  0.00     0.007 C 
ATOM      9  C   UNL d   1      -2.023  -1.781  -0.467  0.00  0.00     0.012 C 
ATOM     10  C   UNL d   1       0.036   2.114  -0.272  0.00  0.00     0.006 C 
ATOM     11  C   UNL d   1      -3.063   1.816  -0.050  0.00  0.00     0.008 C 
ATOM     12  C   UNL d   1      -4.165  -0.329  -0.557  0.00  0.00     0.126 C 
ATOM     13  C   UNL d   1       1.490   2.189   0.179  0.00  0.00     0.006 C 
ATOM     14  C   UNL d   1      -4.435   1.168  -0.308  0.00  0.00     0.033 C 
ATOM     15  C   UNL d   1       2.479  -1.538  -0.567  0.00  0.00     0.017 C 
ATOM     16  C   UNL d   1      -2.934  -0.715   1.627  0.00  0.00     0.018 C 
ATOM     17  C   UNL d   1       1.791  -0.585   1.663  0.00  0.00     0.016 C 
ATOM     18  C   UNL d   1       3.767   1.124   0.123  0.00  0.00     0.083 C 
ATOM     19  C   UNL d   1       3.910  -1.197  -0.983  0.00  0.00     0.079 C 
ATOM     20  C   UNL d   1       4.541  -0.154  -0.099  0.00  0.00     0.127 C 
ENDROOT
BRANCH  12  21
ATOM     21  O   UNL d   1      -5.185  -1.144  -0.011  0.00  0.00    -0.395 OA
ATOM     22  H   UNL d   1      -5.394  -0.830   0.884  0.00  0.00     0.210 HD
ENDBRANCH  12  21
TORSDOF 1
