MODEL 1
REMARK VINA RESULT:      -6.8      0.000      0.000
REMARK  1 active torsions:
REMARK  status: ('A' for Active; 'I' for Inactive)
REMARK    1  A    between atoms: O_1  and  C_13 
ROOT
ATOM      1  O   UNL d   1      -0.324   8.073  19.447  0.00  0.00    -0.298 OA
ATOM      2  C   UNL d   1      -2.403  14.080  18.657  0.00  0.00    -0.005 C 
ATOM      3  C   UNL d   1      -0.994  13.562  19.085  0.00  0.00    -0.002 C 
ATOM      4  C   UNL d   1      -2.460  15.592  18.900  0.00  0.00     0.001 C 
ATOM      5  C   UNL d   1      -1.393  16.367  18.103  0.00  0.00    -0.014 C 
ATOM      6  C   UNL d   1      -0.854  12.002  18.924  0.00  0.00    -0.036 C 
ATOM      7  C   UNL d   1      -2.029  11.314  19.690  0.00  0.00     0.001 C 
ATOM      8  C   UNL d   1       0.152  14.376  18.421  0.00  0.00     0.007 C 
ATOM      9  C   UNL d   1      -0.011  15.899  18.580  0.00  0.00     0.012 C 
ATOM     10  C   UNL d   1      -3.509  13.352  19.430  0.00  0.00     0.006 C 
ATOM     11  C   UNL d   1      -3.751  16.348  18.592  0.00  0.00     0.008 C 
ATOM     12  C   UNL d   1      -1.764  17.803  18.517  0.00  0.00     0.126 C 
ATOM     13  C   UNL d   1      -3.410  11.839  19.275  0.00  0.00     0.006 C 
ATOM     14  C   UNL d   1      -3.305  17.817  18.479  0.00  0.00     0.033 C 
ATOM     15  C   UNL d   1       0.495  11.524  19.550  0.00  0.00     0.017 C 
ATOM     16  C   UNL d   1      -1.492  16.207  16.565  0.00  0.00     0.018 C 
ATOM     17  C   UNL d   1      -0.858  11.602  17.425  0.00  0.00     0.016 C 
ATOM     18  C   UNL d   1      -1.993   9.783  19.570  0.00  0.00     0.083 C 
ATOM     19  C   UNL d   1       0.452  10.178  20.275  0.00  0.00     0.079 C 
ATOM     20  C   UNL d   1      -0.588   9.246  19.712  0.00  0.00     0.127 C 
ENDROOT
BRANCH  12  21
ATOM     21  O   UNL d   1      -1.209  18.785  17.662  0.00  0.00    -0.395 OA
ATOM     22  H   UNL d   1      -0.249  18.820  17.804  0.00  0.00     0.210 HD
ENDBRANCH  12  21
TORSDOF 1
ENDMDL
MODEL 2
REMARK VINA RESULT:      -6.1      1.680      6.869
REMARK  1 active torsions:
REMARK  status: ('A' for Active; 'I' for Inactive)
REMARK    1  A    between atoms: O_1  and  C_13 
ROOT
ATOM      1  O   UNL d   1      -5.340  20.069  17.047  0.00  0.00    -0.298 OA
ATOM      2  C   UNL d   1      -1.480  15.167  18.499  0.00  0.00    -0.005 C 
ATOM      3  C   UNL d   1      -2.953  15.439  18.938  0.00  0.00    -0.002 C 
ATOM      4  C   UNL d   1      -0.922  14.020  19.347  0.00  0.00     0.001 C 
ATOM      5  C   UNL d   1      -1.726  12.715  19.191  0.00  0.00    -0.014 C 
ATOM      6  C   UNL d   1      -3.599  16.645  18.157  0.00  0.00    -0.036 C 
ATOM      7  C   UNL d   1      -2.667  17.890  18.302  0.00  0.00     0.001 C 
ATOM      8  C   UNL d   1      -3.810  14.143  18.931  0.00  0.00     0.007 C 
ATOM      9  C   UNL d   1      -3.155  12.974  19.689  0.00  0.00     0.012 C 
ATOM     10  C   UNL d   1      -0.625  16.433  18.646  0.00  0.00     0.006 C 
ATOM     11  C   UNL d   1       0.524  13.573  19.139  0.00  0.00     0.008 C 
ATOM     12  C   UNL d   1      -0.887  11.792  20.094  0.00  0.00     0.126 C 
ATOM     13  C   UNL d   1      -1.217  17.611  17.882  0.00  0.00     0.006 C 
ATOM     14  C   UNL d   1       0.571  12.164  19.756  0.00  0.00     0.033 C 
ATOM     15  C   UNL d   1      -4.991  16.991  18.776  0.00  0.00     0.017 C 
ATOM     16  C   UNL d   1      -1.775  12.155  17.746  0.00  0.00     0.018 C 
ATOM     17  C   UNL d   1      -3.812  16.281  16.664  0.00  0.00     0.016 C 
ATOM     18  C   UNL d   1      -3.204  19.117  17.549  0.00  0.00     0.083 C 
ATOM     19  C   UNL d   1      -5.343  18.477  18.832  0.00  0.00     0.079 C 
ATOM     20  C   UNL d   1      -4.696  19.271  17.728  0.00  0.00     0.127 C 
ENDROOT
BRANCH  12  21
ATOM     21  O   UNL d   1      -1.143  10.419  19.872  0.00  0.00    -0.395 OA
ATOM     22  H   UNL d   1      -0.297   9.943  19.831  0.00  0.00     0.210 HD
ENDBRANCH  12  21
TORSDOF 1
ENDMDL
MODEL 3
REMARK VINA RESULT:      -6.1      1.391      6.592
REMARK  1 active torsions:
REMARK  status: ('A' for Active; 'I' for Inactive)
REMARK    1  A    between atoms: O_1  and  C_13 
ROOT
ATOM      1  O   UNL d   1      -2.628  17.876  17.617  0.00  0.00    -0.298 OA
ATOM      2  C   UNL d   1      -1.042  11.671  17.725  0.00  0.00    -0.005 C 
ATOM      3  C   UNL d   1      -0.525  12.847  18.612  0.00  0.00    -0.002 C 
ATOM      4  C   UNL d   1      -0.141  10.453  17.957  0.00  0.00     0.001 C 
ATOM      5  C   UNL d   1      -0.130   9.988  19.426  0.00  0.00    -0.014 C 
ATOM      6  C   UNL d   1      -1.358  14.167  18.403  0.00  0.00    -0.036 C 
ATOM      7  C   UNL d   1      -1.383  14.503  16.878  0.00  0.00     0.001 C 
ATOM      8  C   UNL d   1      -0.363  12.425  20.100  0.00  0.00     0.007 C 
ATOM      9  C   UNL d   1       0.443  11.126  20.281  0.00  0.00     0.012 C 
ATOM     10  C   UNL d   1      -1.062  12.073  16.245  0.00  0.00     0.006 C 
ATOM     11  C   UNL d   1      -0.411   9.166  17.179  0.00  0.00     0.008 C 
ATOM     12  C   UNL d   1       0.787   8.758  19.293  0.00  0.00     0.126 C 
ATOM     13  C   UNL d   1      -1.879  13.338  16.011  0.00  0.00     0.006 C 
ATOM     14  C   UNL d   1       0.318   8.081  17.990  0.00  0.00     0.033 C 
ATOM     15  C   UNL d   1      -0.674  15.350  19.162  0.00  0.00     0.017 C 
ATOM     16  C   UNL d   1      -1.516   9.569  19.981  0.00  0.00     0.018 C 
ATOM     17  C   UNL d   1      -2.796  14.004  18.961  0.00  0.00     0.016 C 
ATOM     18  C   UNL d   1      -2.198  15.769  16.569  0.00  0.00     0.083 C 
ATOM     19  C   UNL d   1      -0.720  16.706  18.458  0.00  0.00     0.079 C 
ATOM     20  C   UNL d   1      -1.929  16.864  17.574  0.00  0.00     0.127 C 
ENDROOT
BRANCH  12  21
ATOM     21  O   UNL d   1       0.700   7.881  20.401  0.00  0.00    -0.395 OA
ATOM     22  H   UNL d   1      -0.009   8.187  20.990  0.00  0.00     0.210 HD
ENDBRANCH  12  21
TORSDOF 1
ENDMDL
MODEL 4
REMARK VINA RESULT:      -5.8      1.496      2.254
REMARK  1 active torsions:
REMARK  status: ('A' for Active; 'I' for Inactive)
REMARK    1  A    between atoms: O_1  and  C_13 
ROOT
ATOM      1  O   UNL d   1      -1.056   5.861  18.986  0.00  0.00    -0.298 OA
ATOM      2  C   UNL d   1      -2.050  12.157  18.342  0.00  0.00    -0.005 C 
ATOM      3  C   UNL d   1      -1.012  11.397  19.227  0.00  0.00    -0.002 C 
ATOM      4  C   UNL d   1      -2.070  13.628  18.768  0.00  0.00     0.001 C 
ATOM      5  C   UNL d   1      -0.700  14.315  18.610  0.00  0.00    -0.014 C 
ATOM      6  C   UNL d   1      -0.958   9.858  18.900  0.00  0.00    -0.036 C 
ATOM      7  C   UNL d   1      -2.403   9.275  18.999  0.00  0.00     0.001 C 
ATOM      8  C   UNL d   1       0.375  12.098  19.226  0.00  0.00     0.007 C 
ATOM      9  C   UNL d   1       0.298  13.604  19.536  0.00  0.00     0.012 C 
ATOM     10  C   UNL d   1      -3.441  11.523  18.469  0.00  0.00     0.006 C 
ATOM     11  C   UNL d   1      -3.032  14.592  18.076  0.00  0.00     0.008 C 
ATOM     12  C   UNL d   1      -1.082  15.741  19.049  0.00  0.00     0.126 C 
ATOM     13  C   UNL d   1      -3.421  10.035  18.138  0.00  0.00     0.006 C 
ATOM     14  C   UNL d   1      -2.450  15.983  18.383  0.00  0.00     0.033 C 
ATOM     15  C   UNL d   1      -0.054   9.127  19.945  0.00  0.00     0.017 C 
ATOM     16  C   UNL d   1      -0.146  14.327  17.162  0.00  0.00     0.018 C 
ATOM     17  C   UNL d   1      -0.356   9.616  17.490  0.00  0.00     0.016 C 
ATOM     18  C   UNL d   1      -2.457   7.775  18.671  0.00  0.00     0.083 C 
ATOM     19  C   UNL d   1      -0.523   7.736  20.372  0.00  0.00     0.079 C 
ATOM     20  C   UNL d   1      -1.302   7.028  19.295  0.00  0.00     0.127 C 
ENDROOT
BRANCH  12  21
ATOM     21  O   UNL d   1      -0.129  16.713  18.660  0.00  0.00    -0.395 OA
ATOM     22  H   UNL d   1      -0.458  17.593  18.906  0.00  0.00     0.210 HD
ENDBRANCH  12  21
TORSDOF 1
ENDMDL
MODEL 5
REMARK VINA RESULT:      -5.7      2.229      4.024
REMARK  1 active torsions:
REMARK  status: ('A' for Active; 'I' for Inactive)
REMARK    1  A    between atoms: O_1  and  C_13 
ROOT
ATOM      1  O   UNL d   1      -0.740   4.796  18.050  0.00  0.00    -0.298 OA
ATOM      2  C   UNL d   1      -0.406  11.150  18.790  0.00  0.00    -0.005 C 
ATOM      3  C   UNL d   1      -0.398  10.297  17.483  0.00  0.00    -0.002 C 
ATOM      4  C   UNL d   1      -0.014  12.588  18.437  0.00  0.00     0.001 C 
ATOM      5  C   UNL d   1      -0.976  13.239  17.424  0.00  0.00    -0.014 C 
ATOM      6  C   UNL d   1      -0.737   8.783  17.751  0.00  0.00    -0.036 C 
ATOM      7  C   UNL d   1       0.231   8.243  18.852  0.00  0.00     0.001 C 
ATOM      8  C   UNL d   1      -1.248  10.950  16.357  0.00  0.00     0.007 C 
ATOM      9  C   UNL d   1      -0.908  12.433  16.119  0.00  0.00     0.012 C 
ATOM     10  C   UNL d   1       0.546  10.555  19.835  0.00  0.00     0.006 C 
ATOM     11  C   UNL d   1       0.086  13.629  19.551  0.00  0.00     0.008 C 
ATOM     12  C   UNL d   1      -0.348  14.643  17.347  0.00  0.00     0.126 C 
ATOM     13  C   UNL d   1       0.228   9.094  20.129  0.00  0.00     0.006 C 
ATOM     14  C   UNL d   1       0.004  14.976  18.810  0.00  0.00     0.033 C 
ATOM     15  C   UNL d   1      -0.518   7.952  16.446  0.00  0.00     0.017 C 
ATOM     16  C   UNL d   1      -2.448  13.333  17.900  0.00  0.00     0.018 C 
ATOM     17  C   UNL d   1      -2.218   8.620  18.184  0.00  0.00     0.016 C 
ATOM     18  C   UNL d   1      -0.040   6.772  19.203  0.00  0.00     0.083 C 
ATOM     19  C   UNL d   1       0.062   6.551  16.639  0.00  0.00     0.079 C 
ATOM     20  C   UNL d   1      -0.308   5.945  17.967  0.00  0.00     0.127 C 
ENDROOT
BRANCH  12  21
ATOM     21  O   UNL d   1      -1.217  15.607  16.784  0.00  0.00    -0.395 OA
ATOM     22  H   UNL d   1      -1.535  16.194  17.489  0.00  0.00     0.210 HD
ENDBRANCH  12  21
TORSDOF 1
ENDMDL
MODEL 6
REMARK VINA RESULT:      -5.6      2.032      7.112
REMARK  1 active torsions:
REMARK  status: ('A' for Active; 'I' for Inactive)
REMARK    1  A    between atoms: O_1  and  C_13 
ROOT
ATOM      1  O   UNL d   1      -1.261  16.169  18.893  0.00  0.00    -0.298 OA
ATOM      2  C   UNL d   1      -1.452   9.836  17.952  0.00  0.00    -0.005 C 
ATOM      3  C   UNL d   1      -0.338  10.713  18.605  0.00  0.00    -0.002 C 
ATOM      4  C   UNL d   1      -0.888   8.432  17.708  0.00  0.00     0.001 C 
ATOM      5  C   UNL d   1      -0.421   7.742  19.004  0.00  0.00    -0.014 C 
ATOM      6  C   UNL d   1      -0.807  12.197  18.846  0.00  0.00    -0.036 C 
ATOM      7  C   UNL d   1      -1.343  12.776  17.498  0.00  0.00     0.001 C 
ATOM      8  C   UNL d   1       0.280  10.030  19.857  0.00  0.00     0.007 C 
ATOM      9  C   UNL d   1       0.720   8.576  19.602  0.00  0.00     0.012 C 
ATOM     10  C   UNL d   1      -1.949  10.469  16.646  0.00  0.00     0.006 C 
ATOM     11  C   UNL d   1      -1.771   7.379  17.043  0.00  0.00     0.008 C 
ATOM     12  C   UNL d   1       0.011   6.383  18.423  0.00  0.00     0.126 C 
ATOM     13  C   UNL d   1      -2.428  11.901  16.854  0.00  0.00     0.006 C 
ATOM     14  C   UNL d   1      -1.094   6.044  17.403  0.00  0.00     0.033 C 
ATOM     15  C   UNL d   1       0.405  13.065  19.313  0.00  0.00     0.017 C 
ATOM     16  C   UNL d   1      -1.532   7.545  20.068  0.00  0.00     0.018 C 
ATOM     17  C   UNL d   1      -1.896  12.257  19.949  0.00  0.00     0.016 C 
ATOM     18  C   UNL d   1      -1.850  14.219  17.638  0.00  0.00     0.083 C 
ATOM     19  C   UNL d   1       0.444  14.496  18.776  0.00  0.00     0.079 C 
ATOM     20  C   UNL d   1      -0.928  15.052  18.498  0.00  0.00     0.127 C 
ENDROOT
BRANCH  12  21
ATOM     21  O   UNL d   1       0.141   5.376  19.410  0.00  0.00    -0.395 OA
ATOM     22  H   UNL d   1      -0.321   5.663  20.215  0.00  0.00     0.210 HD
ENDBRANCH  12  21
TORSDOF 1
ENDMDL
MODEL 7
REMARK VINA RESULT:      -5.5     18.043     20.131
REMARK  1 active torsions:
REMARK  status: ('A' for Active; 'I' for Inactive)
REMARK    1  A    between atoms: O_1  and  C_13 
ROOT
ATOM      1  O   UNL d   1      11.374  15.678  12.304  0.00  0.00    -0.298 OA
ATOM      2  C   UNL d   1      15.912  12.901   8.736  0.00  0.00    -0.005 C 
ATOM      3  C   UNL d   1      15.420  12.547  10.175  0.00  0.00    -0.002 C 
ATOM      4  C   UNL d   1      17.203  12.124   8.458  0.00  0.00     0.001 C 
ATOM      5  C   UNL d   1      17.014  10.598   8.547  0.00  0.00    -0.014 C 
ATOM      6  C   UNL d   1      14.121  13.341  10.577  0.00  0.00    -0.036 C 
ATOM      7  C   UNL d   1      14.384  14.866  10.368  0.00  0.00     0.001 C 
ATOM      8  C   UNL d   1      15.321  11.011  10.394  0.00  0.00     0.007 C 
ATOM      9  C   UNL d   1      16.596  10.253   9.983  0.00  0.00     0.012 C 
ATOM     10  C   UNL d   1      16.131  14.412   8.592  0.00  0.00     0.006 C 
ATOM     11  C   UNL d   1      17.915  12.316   7.120  0.00  0.00     0.008 C 
ATOM     12  C   UNL d   1      18.435  10.146   8.164  0.00  0.00     0.126 C 
ATOM     13  C   UNL d   1      14.881  15.205   8.956  0.00  0.00     0.006 C 
ATOM     14  C   UNL d   1      18.824  11.080   7.001  0.00  0.00     0.033 C 
ATOM     15  C   UNL d   1      13.796  13.095  12.086  0.00  0.00     0.017 C 
ATOM     16  C   UNL d   1      15.977  10.016   7.552  0.00  0.00     0.018 C 
ATOM     17  C   UNL d   1      12.905  12.866   9.739  0.00  0.00     0.016 C 
ATOM     18  C   UNL d   1      13.159  15.727  10.712  0.00  0.00     0.083 C 
ATOM     19  C   UNL d   1      13.248  14.298  12.853  0.00  0.00     0.079 C 
ATOM     20  C   UNL d   1      12.479  15.249  11.974  0.00  0.00     0.127 C 
ENDROOT
BRANCH  12  21
ATOM     21  O   UNL d   1      18.499   8.783   7.785  0.00  0.00    -0.395 OA
ATOM     22  H   UNL d   1      18.048   8.672   6.932  0.00  0.00     0.210 HD
ENDBRANCH  12  21
TORSDOF 1
ENDMDL
MODEL 8
REMARK VINA RESULT:      -5.5     23.634     26.079
REMARK  1 active torsions:
REMARK  status: ('A' for Active; 'I' for Inactive)
REMARK    1  A    between atoms: O_1  and  C_13 
ROOT
ATOM      1  O   UNL d   1      13.436  -8.407   6.955  0.00  0.00    -0.298 OA
ATOM      2  C   UNL d   1      14.922  -4.095  11.454  0.00  0.00    -0.005 C 
ATOM      3  C   UNL d   1      14.259  -5.501  11.601  0.00  0.00    -0.002 C 
ATOM      4  C   UNL d   1      14.792  -3.353  12.788  0.00  0.00     0.001 C 
ATOM      5  C   UNL d   1      15.474  -4.094  13.954  0.00  0.00    -0.014 C 
ATOM      6  C   UNL d   1      14.293  -6.324  10.260  0.00  0.00    -0.036 C 
ATOM      7  C   UNL d   1      13.663  -5.455   9.125  0.00  0.00     0.001 C 
ATOM      8  C   UNL d   1      14.801  -6.273  12.836  0.00  0.00     0.007 C 
ATOM      9  C   UNL d   1      14.770  -5.446  14.135  0.00  0.00     0.012 C 
ATOM     10  C   UNL d   1      14.272  -3.304  10.312  0.00  0.00     0.006 C 
ATOM     11  C   UNL d   1      15.335  -1.930  12.905  0.00  0.00     0.008 C 
ATOM     12  C   UNL d   1      15.216  -3.078  15.083  0.00  0.00     0.126 C 
ATOM     13  C   UNL d   1      14.310  -4.070   8.995  0.00  0.00     0.006 C 
ATOM     14  C   UNL d   1      15.480  -1.711  14.422  0.00  0.00     0.033 C 
ATOM     15  C   UNL d   1      13.446  -7.628  10.416  0.00  0.00     0.017 C 
ATOM     16  C   UNL d   1      16.996  -4.323  13.772  0.00  0.00     0.018 C 
ATOM     17  C   UNL d   1      15.747  -6.734   9.904  0.00  0.00     0.016 C 
ATOM     18  C   UNL d   1      13.674  -6.168   7.764  0.00  0.00     0.083 C 
ATOM     19  C   UNL d   1      12.647  -8.054   9.185  0.00  0.00     0.079 C 
ATOM     20  C   UNL d   1      13.292  -7.623   7.894  0.00  0.00     0.127 C 
ENDROOT
BRANCH  12  21
ATOM     21  O   UNL d   1      16.044  -3.284  16.211  0.00  0.00    -0.395 OA
ATOM     22  H   UNL d   1      16.448  -2.438  16.464  0.00  0.00     0.210 HD
ENDBRANCH  12  21
TORSDOF 1
ENDMDL
MODEL 9
REMARK VINA RESULT:      -5.5     18.451     19.955
REMARK  1 active torsions:
REMARK  status: ('A' for Active; 'I' for Inactive)
REMARK    1  A    between atoms: O_1  and  C_13 
ROOT
ATOM      1  O   UNL d   1      19.137  10.849   5.480  0.00  0.00    -0.298 OA
ATOM      2  C   UNL d   1      14.995  12.784   9.967  0.00  0.00    -0.005 C 
ATOM      3  C   UNL d   1      16.202  13.543   9.331  0.00  0.00    -0.002 C 
ATOM      4  C   UNL d   1      14.511  13.573  11.188  0.00  0.00     0.001 C 
ATOM      5  C   UNL d   1      14.057  15.002  10.835  0.00  0.00    -0.014 C 
ATOM      6  C   UNL d   1      16.807  12.779   8.095  0.00  0.00    -0.036 C 
ATOM      7  C   UNL d   1      17.152  11.319   8.531  0.00  0.00     0.001 C 
ATOM      8  C   UNL d   1      15.870  15.036   9.056  0.00  0.00     0.007 C 
ATOM      9  C   UNL d   1      15.268  15.761  10.274  0.00  0.00     0.012 C 
ATOM     10  C   UNL d   1      15.394  11.354  10.353  0.00  0.00     0.006 C 
ATOM     11  C   UNL d   1      13.351  13.026  12.018  0.00  0.00     0.008 C 
ATOM     12  C   UNL d   1      13.593  15.470  12.227  0.00  0.00     0.126 C 
ATOM     13  C   UNL d   1      15.965  10.583   9.168  0.00  0.00     0.006 C 
ATOM     14  C   UNL d   1      12.843  14.251  12.800  0.00  0.00     0.033 C 
ATOM     15  C   UNL d   1      18.123  13.482   7.630  0.00  0.00     0.017 C 
ATOM     16  C   UNL d   1      12.885  15.076   9.823  0.00  0.00     0.018 C 
ATOM     17  C   UNL d   1      15.812  12.784   6.905  0.00  0.00     0.016 C 
ATOM     18  C   UNL d   1      17.729  10.482   7.379  0.00  0.00     0.083 C 
ATOM     19  C   UNL d   1      19.240  12.554   7.153  0.00  0.00     0.079 C 
ATOM     20  C   UNL d   1      18.719  11.273   6.558  0.00  0.00     0.127 C 
ENDROOT
BRANCH  12  21
ATOM     21  O   UNL d   1      12.767  16.618  12.178  0.00  0.00    -0.395 OA
ATOM     22  H   UNL d   1      12.682  16.983  13.073  0.00  0.00     0.210 HD
ENDBRANCH  12  21
TORSDOF 1
ENDMDL
