MODEL 1
REMARK VINA RESULT:      -7.3      0.000      0.000
REMARK  6 active torsions:
REMARK  status: ('A' for Active; 'I' for Inactive)
REMARK    1  A    between atoms: N_8  and  C_18 
REMARK    2  A    between atoms: N_9  and  N_11 
REMARK       I    between atoms: N_9  and  C_22 
REMARK    3  A    between atoms: N_10  and  C_25 
REMARK       I    between atoms: N_11  and  C_27 
REMARK    4  A    between atoms: N_12  and  C_26 
REMARK       I    between atoms: N_12  and  C_27 
REMARK    5  A    between atoms: C_19  and  C_22 
REMARK    6  A    between atoms: C_28  and  C_33 
ROOT
ATOM      1  O   UNL d   1      15.901  -2.551  16.170  0.00  0.00    -0.267 OA
ATOM      2  N   UNL d   1      16.312  -4.048  14.442  0.00  0.00    -0.263 N 
ATOM      3  C   UNL d   1      16.429  -2.840  15.100  0.00  0.00     0.260 C 
ATOM      4  H   UNL d   1      16.761  -4.263  13.558  0.00  0.00     0.190 HD
ENDROOT
BRANCH   2   5
ATOM      5  N   UNL d   1      15.546  -5.038  15.004  0.00  0.00    -0.248 N 
ATOM      6  C   UNL d   1      14.815  -5.887  14.174  0.00  0.00     0.339 C 
ATOM      7  O   UNL d   1      14.818  -5.797  12.949  0.00  0.00    -0.245 OA
ATOM      8  N   UNL d   1      14.109  -6.820  14.939  0.00  0.00    -0.308 N 
ATOM      9  H   UNL d   1      14.219  -6.756  15.948  0.00  0.00     0.170 HD
ATOM     10  H   UNL d   1      15.553  -5.111  16.015  0.00  0.00     0.192 HD
BRANCH   8  11
ATOM     11  C   UNL d   1      13.254  -7.850  14.483  0.00  0.00     0.037 A 
ATOM     12  C   UNL d   1      11.923  -7.888  14.897  0.00  0.00     0.045 A 
ATOM     13  C   UNL d   1      11.081  -8.904  14.446  0.00  0.00     0.050 A 
ATOM     14  C   UNL d   1      11.569  -9.882  13.581  0.00  0.00     0.016 A 
ATOM     15  C   UNL d   1      12.900  -9.845  13.165  0.00  0.00     0.003 A 
ATOM     16  C   UNL d   1      13.743  -8.828  13.616  0.00  0.00     0.029 A 
BRANCH  13  17
ATOM     17  C   UNL d   1       9.657  -8.944  14.890  0.00  0.00     0.417 C 
ATOM     18  F   UNL d   1       9.363  -8.038  15.870  0.00  0.00    -0.166 F 
ATOM     19  F   UNL d   1       9.277 -10.154  15.398  0.00  0.00    -0.166 F 
ATOM     20  F   UNL d   1       8.783  -8.684  13.875  0.00  0.00    -0.166 F 
ENDBRANCH  13  17
ENDBRANCH   8  11
ENDBRANCH   2   5
BRANCH   3  21
ATOM     21  C   UNL d   1      17.292  -1.894  14.349  0.00  0.00     0.078 C 
ATOM     22  C   UNL d   1      16.743  -0.945  13.577  0.00  0.00    -0.071 C 
ATOM     23  C   UNL d   1      17.557   0.044  12.790  0.00  0.00     0.054 C 
ATOM     24  C   UNL d   1      15.259  -0.787  13.402  0.00  0.00     0.054 C 
ATOM     25  C   UNL d   1      17.165   0.008  11.312  0.00  0.00     0.127 C 
ATOM     26  N   UNL d   1      15.706   0.140  11.155  0.00  0.00    -0.380 N 
ATOM     27  C   UNL d   1      14.881  -0.809  11.919  0.00  0.00     0.127 C 
BRANCH  26  28
ATOM     28  C   UNL d   1      15.231   0.642   9.939  0.00  0.00     0.030 A 
ATOM     29  C   UNL d   1      15.683   1.875   9.469  0.00  0.00     0.032 A 
ATOM     30  C   UNL d   1      15.211   2.375   8.256  0.00  0.00     0.038 A 
ATOM     31  C   UNL d   1      14.285   1.642   7.512  0.00  0.00     0.103 A 
ATOM     32  C   UNL d   1      13.833   0.410   7.982  0.00  0.00     0.038 A 
ATOM     33  C   UNL d   1      14.306  -0.091   9.195  0.00  0.00     0.032 A 
BRANCH  31  34
ATOM     34  N   UNL d   1      13.803   2.151   6.278  0.00  0.00    -0.116 N 
ATOM     35  O   UNL d   1      14.623   2.411   5.365  0.00  0.00    -0.532 OA
ATOM     36  O   UNL d   1      12.569   2.329   6.133  0.00  0.00    -0.532 OA
ENDBRANCH  31  34
ENDBRANCH  26  28
ENDBRANCH   3  21
TORSDOF 6
ENDMDL
MODEL 2
REMARK VINA RESULT:      -7.0      3.303      3.723
REMARK  6 active torsions:
REMARK  status: ('A' for Active; 'I' for Inactive)
REMARK    1  A    between atoms: N_8  and  C_18 
REMARK    2  A    between atoms: N_9  and  N_11 
REMARK       I    between atoms: N_9  and  C_22 
REMARK    3  A    between atoms: N_10  and  C_25 
REMARK       I    between atoms: N_11  and  C_27 
REMARK    4  A    between atoms: N_12  and  C_26 
REMARK       I    between atoms: N_12  and  C_27 
REMARK    5  A    between atoms: C_19  and  C_22 
REMARK    6  A    between atoms: C_28  and  C_33 
ROOT
ATOM      1  O   UNL d   1      15.803  -2.681  15.642  0.00  0.00    -0.267 OA
ATOM      2  N   UNL d   1      16.415  -3.945  13.792  0.00  0.00    -0.263 N 
ATOM      3  C   UNL d   1      16.391  -2.807  14.573  0.00  0.00     0.260 C 
ATOM      4  H   UNL d   1      16.912  -4.024  12.912  0.00  0.00     0.190 HD
ENDROOT
BRANCH   2   5
ATOM      5  N   UNL d   1      15.730  -5.056  14.219  0.00  0.00    -0.248 N 
ATOM      6  C   UNL d   1      16.426  -6.077  14.866  0.00  0.00     0.339 C 
ATOM      7  O   UNL d   1      17.635  -6.037  15.079  0.00  0.00    -0.245 OA
ATOM      8  N   UNL d   1      15.551  -7.109  15.217  0.00  0.00    -0.308 N 
ATOM      9  H   UNL d   1      14.574  -6.981  14.966  0.00  0.00     0.170 HD
ATOM     10  H   UNL d   1      14.732  -5.080  14.045  0.00  0.00     0.192 HD
BRANCH   8  11
ATOM     11  C   UNL d   1      15.857  -8.318  15.885  0.00  0.00     0.037 A 
ATOM     12  C   UNL d   1      15.894  -8.357  17.278  0.00  0.00     0.045 A 
ATOM     13  C   UNL d   1      16.195  -9.549  17.935  0.00  0.00     0.050 A 
ATOM     14  C   UNL d   1      16.460 -10.704  17.198  0.00  0.00     0.016 A 
ATOM     15  C   UNL d   1      16.422 -10.666  15.804  0.00  0.00     0.003 A 
ATOM     16  C   UNL d   1      16.120  -9.473  15.148  0.00  0.00     0.029 A 
BRANCH  13  17
ATOM     17  C   UNL d   1      16.236  -9.590  19.425  0.00  0.00     0.417 C 
ATOM     18  F   UNL d   1      15.464  -8.632  20.020  0.00  0.00    -0.166 F 
ATOM     19  F   UNL d   1      17.487  -9.411  19.944  0.00  0.00    -0.166 F 
ATOM     20  F   UNL d   1      15.798 -10.780  19.931  0.00  0.00    -0.166 F 
ENDBRANCH  13  17
ENDBRANCH   8  11
ENDBRANCH   2   5
BRANCH   3  21
ATOM     21  C   UNL d   1      17.183  -1.711  13.959  0.00  0.00     0.078 C 
ATOM     22  C   UNL d   1      16.577  -0.774  13.215  0.00  0.00    -0.071 C 
ATOM     23  C   UNL d   1      17.318   0.361  12.565  0.00  0.00     0.054 C 
ATOM     24  C   UNL d   1      15.101  -0.775  12.939  0.00  0.00     0.054 C 
ATOM     25  C   UNL d   1      17.034   0.397  11.062  0.00  0.00     0.127 C 
ATOM     26  N   UNL d   1      15.584   0.372  10.804  0.00  0.00    -0.380 N 
ATOM     27  C   UNL d   1      14.829  -0.723  11.433  0.00  0.00     0.127 C 
BRANCH  26  28
ATOM     28  C   UNL d   1      15.136   0.910   9.592  0.00  0.00     0.030 A 
ATOM     29  C   UNL d   1      15.580   2.167   9.181  0.00  0.00     0.032 A 
ATOM     30  C   UNL d   1      15.134   2.704   7.973  0.00  0.00     0.038 A 
ATOM     31  C   UNL d   1      14.243   1.983   7.177  0.00  0.00     0.103 A 
ATOM     32  C   UNL d   1      13.799   0.727   7.588  0.00  0.00     0.038 A 
ATOM     33  C   UNL d   1      14.246   0.190   8.795  0.00  0.00     0.032 A 
BRANCH  31  34
ATOM     34  N   UNL d   1      13.788   2.529   5.948  0.00  0.00    -0.116 N 
ATOM     35  O   UNL d   1      14.379   2.217   4.887  0.00  0.00    -0.532 OA
ATOM     36  O   UNL d   1      12.806   3.312   5.956  0.00  0.00    -0.532 OA
ENDBRANCH  31  34
ENDBRANCH  26  28
ENDBRANCH   3  21
TORSDOF 6
ENDMDL
MODEL 3
REMARK VINA RESULT:      -7.0      5.840      8.878
REMARK  6 active torsions:
REMARK  status: ('A' for Active; 'I' for Inactive)
REMARK    1  A    between atoms: N_8  and  C_18 
REMARK    2  A    between atoms: N_9  and  N_11 
REMARK       I    between atoms: N_9  and  C_22 
REMARK    3  A    between atoms: N_10  and  C_25 
REMARK       I    between atoms: N_11  and  C_27 
REMARK    4  A    between atoms: N_12  and  C_26 
REMARK       I    between atoms: N_12  and  C_27 
REMARK    5  A    between atoms: C_19  and  C_22 
REMARK    6  A    between atoms: C_28  and  C_33 
ROOT
ATOM      1  O   UNL d   1      16.599   3.001   7.547  0.00  0.00    -0.267 OA
ATOM      2  N   UNL d   1      14.741   1.887   8.383  0.00  0.00    -0.263 N 
ATOM      3  C   UNL d   1      15.399   2.746   7.526  0.00  0.00     0.260 C 
ATOM      4  H   UNL d   1      13.747   1.690   8.344  0.00  0.00     0.190 HD
ENDROOT
BRANCH   2   5
ATOM      5  N   UNL d   1      15.462   1.241   9.357  0.00  0.00    -0.248 N 
ATOM      6  C   UNL d   1      14.889   0.157  10.021  0.00  0.00     0.339 C 
ATOM      7  O   UNL d   1      13.759  -0.261   9.779  0.00  0.00    -0.245 OA
ATOM      8  N   UNL d   1      15.781  -0.356  10.967  0.00  0.00    -0.308 N 
ATOM      9  H   UNL d   1      16.682   0.110  11.040  0.00  0.00     0.170 HD
ATOM     10  H   UNL d   1      16.395   1.586   9.548  0.00  0.00     0.192 HD
BRANCH   8  11
ATOM     11  C   UNL d   1      15.586  -1.449  11.843  0.00  0.00     0.037 A 
ATOM     12  C   UNL d   1      16.193  -1.454  13.098  0.00  0.00     0.045 A 
ATOM     13  C   UNL d   1      16.000  -2.533  13.962  0.00  0.00     0.050 A 
ATOM     14  C   UNL d   1      15.200  -3.605  13.570  0.00  0.00     0.016 A 
ATOM     15  C   UNL d   1      14.591  -3.599  12.315  0.00  0.00     0.003 A 
ATOM     16  C   UNL d   1      14.784  -2.521  11.451  0.00  0.00     0.029 A 
BRANCH  13  17
ATOM     17  C   UNL d   1      16.651  -2.539  15.304  0.00  0.00     0.417 C 
ATOM     18  F   UNL d   1      16.747  -3.783  15.860  0.00  0.00    -0.166 F 
ATOM     19  F   UNL d   1      15.993  -1.784  16.234  0.00  0.00    -0.166 F 
ATOM     20  F   UNL d   1      17.925  -2.050  15.273  0.00  0.00    -0.166 F 
ENDBRANCH  13  17
ENDBRANCH   8  11
ENDBRANCH   2   5
BRANCH   3  21
ATOM     21  C   UNL d   1      14.466   3.350   6.542  0.00  0.00     0.078 C 
ATOM     22  C   UNL d   1      14.013   4.600   6.718  0.00  0.00    -0.071 C 
ATOM     23  C   UNL d   1      13.067   5.271   5.762  0.00  0.00     0.054 C 
ATOM     24  C   UNL d   1      14.387   5.448   7.901  0.00  0.00     0.054 C 
ATOM     25  C   UNL d   1      11.825   5.776   6.499  0.00  0.00     0.127 C 
ATOM     26  N   UNL d   1      12.206   6.586   7.669  0.00  0.00    -0.380 N 
ATOM     27  C   UNL d   1      13.136   5.959   8.620  0.00  0.00     0.127 C 
BRANCH  26  28
ATOM     28  C   UNL d   1      11.278   7.526   8.131  0.00  0.00     0.030 A 
ATOM     29  C   UNL d   1      10.208   7.117   8.929  0.00  0.00     0.032 A 
ATOM     30  C   UNL d   1       9.284   8.053   9.390  0.00  0.00     0.038 A 
ATOM     31  C   UNL d   1       9.427   9.400   9.052  0.00  0.00     0.103 A 
ATOM     32  C   UNL d   1      10.495   9.809   8.255  0.00  0.00     0.038 A 
ATOM     33  C   UNL d   1      11.421   8.872   7.794  0.00  0.00     0.032 A 
BRANCH  31  34
ATOM     34  N   UNL d   1       8.485  10.353   9.520  0.00  0.00    -0.116 N 
ATOM     35  O   UNL d   1       8.061  10.262  10.697  0.00  0.00    -0.532 OA
ATOM     36  O   UNL d   1       8.101  11.261   8.743  0.00  0.00    -0.532 OA
ENDBRANCH  31  34
ENDBRANCH  26  28
ENDBRANCH   3  21
TORSDOF 6
ENDMDL
MODEL 4
REMARK VINA RESULT:      -6.9      6.957     12.927
REMARK  6 active torsions:
REMARK  status: ('A' for Active; 'I' for Inactive)
REMARK    1  A    between atoms: N_8  and  C_18 
REMARK    2  A    between atoms: N_9  and  N_11 
REMARK       I    between atoms: N_9  and  C_22 
REMARK    3  A    between atoms: N_10  and  C_25 
REMARK       I    between atoms: N_11  and  C_27 
REMARK    4  A    between atoms: N_12  and  C_26 
REMARK       I    between atoms: N_12  and  C_27 
REMARK    5  A    between atoms: C_19  and  C_22 
REMARK    6  A    between atoms: C_28  and  C_33 
ROOT
ATOM      1  O   UNL d   1      13.642   2.090   6.111  0.00  0.00    -0.267 OA
ATOM      2  N   UNL d   1      14.409   3.833   7.439  0.00  0.00    -0.263 N 
ATOM      3  C   UNL d   1      14.486   2.588   6.849  0.00  0.00     0.260 C 
ATOM      4  H   UNL d   1      15.123   4.224   8.045  0.00  0.00     0.190 HD
ENDROOT
BRANCH   2   5
ATOM      5  N   UNL d   1      13.305   4.613   7.202  0.00  0.00    -0.248 N 
ATOM      6  C   UNL d   1      13.237   5.887   7.765  0.00  0.00     0.339 C 
ATOM      7  O   UNL d   1      14.125   6.358   8.473  0.00  0.00    -0.245 OA
ATOM      8  N   UNL d   1      12.041   6.512   7.403  0.00  0.00    -0.308 N 
ATOM      9  H   UNL d   1      11.413   5.979   6.806  0.00  0.00     0.170 HD
ATOM     10  H   UNL d   1      12.579   4.221   6.612  0.00  0.00     0.192 HD
BRANCH   8  11
ATOM     11  C   UNL d   1      11.591   7.803   7.763  0.00  0.00     0.037 A 
ATOM     12  C   UNL d   1      10.480   7.949   8.593  0.00  0.00     0.045 A 
ATOM     13  C   UNL d   1      10.036   9.223   8.948  0.00  0.00     0.050 A 
ATOM     14  C   UNL d   1      10.705  10.351   8.474  0.00  0.00     0.016 A 
ATOM     15  C   UNL d   1      11.817  10.206   7.646  0.00  0.00     0.003 A 
ATOM     16  C   UNL d   1      12.261   8.932   7.290  0.00  0.00     0.029 A 
BRANCH  13  17
ATOM     17  C   UNL d   1       8.847   9.378   9.835  0.00  0.00     0.417 C 
ATOM     18  F   UNL d   1       7.694   9.664   9.159  0.00  0.00    -0.166 F 
ATOM     19  F   UNL d   1       8.978  10.379  10.755  0.00  0.00    -0.166 F 
ATOM     20  F   UNL d   1       8.579   8.251  10.556  0.00  0.00    -0.166 F 
ENDBRANCH  13  17
ENDBRANCH   8  11
ENDBRANCH   2   5
BRANCH   3  21
ATOM     21  C   UNL d   1      15.744   1.890   7.216  0.00  0.00     0.078 C 
ATOM     22  C   UNL d   1      15.721   0.858   8.071  0.00  0.00    -0.071 C 
ATOM     23  C   UNL d   1      16.956   0.108   8.484  0.00  0.00     0.054 C 
ATOM     24  C   UNL d   1      14.460   0.359   8.719  0.00  0.00     0.054 C 
ATOM     25  C   UNL d   1      17.086   0.086  10.008  0.00  0.00     0.127 C 
ATOM     26  N   UNL d   1      15.836  -0.383  10.633  0.00  0.00    -0.380 N 
ATOM     27  C   UNL d   1      14.608   0.326  10.242  0.00  0.00     0.127 C 
BRANCH  26  28
ATOM     28  C   UNL d   1      15.927  -0.953  11.907  0.00  0.00     0.030 A 
ATOM     29  C   UNL d   1      14.969  -1.875  12.329  0.00  0.00     0.032 A 
ATOM     30  C   UNL d   1      15.059  -2.444  13.598  0.00  0.00     0.038 A 
ATOM     31  C   UNL d   1      16.108  -2.090  14.448  0.00  0.00     0.103 A 
ATOM     32  C   UNL d   1      17.065  -1.168  14.028  0.00  0.00     0.038 A 
ATOM     33  C   UNL d   1      16.975  -0.600  12.757  0.00  0.00     0.032 A 
BRANCH  31  34
ATOM     34  N   UNL d   1      16.200  -2.668  15.742  0.00  0.00    -0.116 N 
ATOM     35  O   UNL d   1      16.064  -1.932  16.749  0.00  0.00    -0.532 OA
ATOM     36  O   UNL d   1      16.415  -3.900  15.844  0.00  0.00    -0.532 OA
ENDBRANCH  31  34
ENDBRANCH  26  28
ENDBRANCH   3  21
TORSDOF 6
ENDMDL
MODEL 5
REMARK VINA RESULT:      -6.8      4.896      7.664
REMARK  6 active torsions:
REMARK  status: ('A' for Active; 'I' for Inactive)
REMARK    1  A    between atoms: N_8  and  C_18 
REMARK    2  A    between atoms: N_9  and  N_11 
REMARK       I    between atoms: N_9  and  C_22 
REMARK    3  A    between atoms: N_10  and  C_25 
REMARK       I    between atoms: N_11  and  C_27 
REMARK    4  A    between atoms: N_12  and  C_26 
REMARK       I    between atoms: N_12  and  C_27 
REMARK    5  A    between atoms: C_19  and  C_22 
REMARK    6  A    between atoms: C_28  and  C_33 
ROOT
ATOM      1  O   UNL d   1      14.699  -0.855   7.274  0.00  0.00    -0.267 OA
ATOM      2  N   UNL d   1      14.166  -0.035   9.380  0.00  0.00    -0.263 N 
ATOM      3  C   UNL d   1      14.188  -0.008   8.000  0.00  0.00     0.260 C 
ATOM      4  H   UNL d   1      13.734   0.678   9.959  0.00  0.00     0.190 HD
ENDROOT
BRANCH   2   5
ATOM      5  N   UNL d   1      14.758  -1.087  10.033  0.00  0.00    -0.248 N 
ATOM      6  C   UNL d   1      14.910  -1.031  11.418  0.00  0.00     0.339 C 
ATOM      7  O   UNL d   1      14.538  -0.076  12.097  0.00  0.00    -0.245 OA
ATOM      8  N   UNL d   1      15.529  -2.194  11.884  0.00  0.00    -0.308 N 
ATOM      9  H   UNL d   1      15.772  -2.890  11.183  0.00  0.00     0.170 HD
ATOM     10  H   UNL d   1      15.057  -1.874   9.468  0.00  0.00     0.192 HD
BRANCH   8  11
ATOM     11  C   UNL d   1      15.862  -2.527  13.217  0.00  0.00     0.037 A 
ATOM     12  C   UNL d   1      16.615  -3.670  13.484  0.00  0.00     0.045 A 
ATOM     13  C   UNL d   1      16.943  -3.998  14.799  0.00  0.00     0.050 A 
ATOM     14  C   UNL d   1      16.518  -3.183  15.848  0.00  0.00     0.016 A 
ATOM     15  C   UNL d   1      15.764  -2.040  15.582  0.00  0.00     0.003 A 
ATOM     16  C   UNL d   1      15.437  -1.712  14.266  0.00  0.00     0.029 A 
BRANCH  13  17
ATOM     17  C   UNL d   1      17.749  -5.220  15.084  0.00  0.00     0.417 C 
ATOM     18  F   UNL d   1      17.811  -6.092  14.034  0.00  0.00    -0.166 F 
ATOM     19  F   UNL d   1      17.272  -5.958  16.131  0.00  0.00    -0.166 F 
ATOM     20  F   UNL d   1      19.045  -4.934  15.400  0.00  0.00    -0.166 F 
ENDBRANCH  13  17
ENDBRANCH   8  11
ENDBRANCH   2   5
BRANCH   3  21
ATOM     21  C   UNL d   1      13.503   1.198   7.470  0.00  0.00     0.078 C 
ATOM     22  C   UNL d   1      14.215   2.273   7.103  0.00  0.00    -0.071 C 
ATOM     23  C   UNL d   1      13.586   3.526   6.559  0.00  0.00     0.054 C 
ATOM     24  C   UNL d   1      15.711   2.344   7.218  0.00  0.00     0.054 C 
ATOM     25  C   UNL d   1      14.023   4.744   7.373  0.00  0.00     0.127 C 
ATOM     26  N   UNL d   1      15.491   4.790   7.498  0.00  0.00    -0.380 N 
ATOM     27  C   UNL d   1      16.137   3.576   8.021  0.00  0.00     0.127 C 
BRANCH  26  28
ATOM     28  C   UNL d   1      16.079   6.038   7.730  0.00  0.00     0.030 A 
ATOM     29  C   UNL d   1      15.277   7.156   7.957  0.00  0.00     0.032 A 
ATOM     30  C   UNL d   1      15.863   8.400   8.188  0.00  0.00     0.038 A 
ATOM     31  C   UNL d   1      17.253   8.526   8.191  0.00  0.00     0.103 A 
ATOM     32  C   UNL d   1      18.055   7.409   7.964  0.00  0.00     0.038 A 
ATOM     33  C   UNL d   1      17.468   6.164   7.733  0.00  0.00     0.032 A 
BRANCH  31  34
ATOM     34  N   UNL d   1      17.850   9.793   8.425  0.00  0.00    -0.116 N 
ATOM     35  O   UNL d   1      18.464  10.359   7.488  0.00  0.00    -0.532 OA
ATOM     36  O   UNL d   1      17.750  10.312   9.563  0.00  0.00    -0.532 OA
ENDBRANCH  31  34
ENDBRANCH  26  28
ENDBRANCH   3  21
TORSDOF 6
ENDMDL
MODEL 6
REMARK VINA RESULT:      -6.8      1.187      1.556
REMARK  6 active torsions:
REMARK  status: ('A' for Active; 'I' for Inactive)
REMARK    1  A    between atoms: N_8  and  C_18 
REMARK    2  A    between atoms: N_9  and  N_11 
REMARK       I    between atoms: N_9  and  C_22 
REMARK    3  A    between atoms: N_10  and  C_25 
REMARK       I    between atoms: N_11  and  C_27 
REMARK    4  A    between atoms: N_12  and  C_26 
REMARK       I    between atoms: N_12  and  C_27 
REMARK    5  A    between atoms: C_19  and  C_22 
REMARK    6  A    between atoms: C_28  and  C_33 
ROOT
ATOM      1  O   UNL d   1      17.145  -5.339  13.139  0.00  0.00    -0.267 OA
ATOM      2  N   UNL d   1      15.745  -4.910  14.942  0.00  0.00    -0.263 N 
ATOM      3  C   UNL d   1      16.663  -4.573  13.968  0.00  0.00     0.260 C 
ATOM      4  H   UNL d   1      15.359  -4.257  15.616  0.00  0.00     0.190 HD
ENDROOT
BRANCH   2   5
ATOM      5  N   UNL d   1      15.307  -6.209  15.019  0.00  0.00    -0.248 N 
ATOM      6  C   UNL d   1      14.104  -6.560  14.407  0.00  0.00     0.339 C 
ATOM      7  O   UNL d   1      13.404  -5.759  13.792  0.00  0.00    -0.245 OA
ATOM      8  N   UNL d   1      13.842  -7.919  14.600  0.00  0.00    -0.308 N 
ATOM      9  H   UNL d   1      14.530  -8.442  15.136  0.00  0.00     0.170 HD
ATOM     10  H   UNL d   1      15.892  -6.866  15.523  0.00  0.00     0.192 HD
BRANCH   8  11
ATOM     11  C   UNL d   1      12.731  -8.663  14.141  0.00  0.00     0.037 A 
ATOM     12  C   UNL d   1      11.522  -8.612  14.834  0.00  0.00     0.045 A 
ATOM     13  C   UNL d   1      10.426  -9.347  14.380  0.00  0.00     0.050 A 
ATOM     14  C   UNL d   1      10.540 -10.133  13.234  0.00  0.00     0.016 A 
ATOM     15  C   UNL d   1      11.749 -10.184  12.540  0.00  0.00     0.003 A 
ATOM     16  C   UNL d   1      12.845  -9.449  12.994  0.00  0.00     0.029 A 
BRANCH  13  17
ATOM     17  C   UNL d   1       9.133  -9.292  15.122  0.00  0.00     0.417 C 
ATOM     18  F   UNL d   1       9.160  -8.465  16.209  0.00  0.00    -0.166 F 
ATOM     19  F   UNL d   1       8.730 -10.504  15.607  0.00  0.00    -0.166 F 
ATOM     20  F   UNL d   1       8.101  -8.848  14.347  0.00  0.00    -0.166 F 
ENDBRANCH  13  17
ENDBRANCH   8  11
ENDBRANCH   2   5
BRANCH   3  21
ATOM     21  C   UNL d   1      17.019  -3.133  14.034  0.00  0.00     0.078 C 
ATOM     22  C   UNL d   1      16.281  -2.223  13.382  0.00  0.00    -0.071 C 
ATOM     23  C   UNL d   1      16.585  -0.751  13.406  0.00  0.00     0.054 C 
ATOM     24  C   UNL d   1      15.087  -2.585  12.544  0.00  0.00     0.054 C 
ATOM     25  C   UNL d   1      16.720  -0.207  11.983  0.00  0.00     0.127 C 
ATOM     26  N   UNL d   1      15.555  -0.588  11.165  0.00  0.00    -0.380 N 
ATOM     27  C   UNL d   1      15.227  -2.022  11.128  0.00  0.00     0.127 C 
BRANCH  26  28
ATOM     28  C   UNL d   1      15.251   0.217  10.062  0.00  0.00     0.030 A 
ATOM     29  C   UNL d   1      14.300  -0.204   9.132  0.00  0.00     0.032 A 
ATOM     30  C   UNL d   1      13.996   0.599   8.033  0.00  0.00     0.038 A 
ATOM     31  C   UNL d   1      14.644   1.823   7.863  0.00  0.00     0.103 A 
ATOM     32  C   UNL d   1      15.595   2.244   8.793  0.00  0.00     0.038 A 
ATOM     33  C   UNL d   1      15.898   1.441   9.892  0.00  0.00     0.032 A 
BRANCH  31  34
ATOM     34  N   UNL d   1      14.336   2.640   6.744  0.00  0.00    -0.116 N 
ATOM     35  O   UNL d   1      15.251   3.314   6.212  0.00  0.00    -0.532 OA
ATOM     36  O   UNL d   1      13.156   2.668   6.317  0.00  0.00    -0.532 OA
ENDBRANCH  31  34
ENDBRANCH  26  28
ENDBRANCH   3  21
TORSDOF 6
ENDMDL
MODEL 7
REMARK VINA RESULT:      -6.8      7.670     13.753
REMARK  6 active torsions:
REMARK  status: ('A' for Active; 'I' for Inactive)
REMARK    1  A    between atoms: N_8  and  C_18 
REMARK    2  A    between atoms: N_9  and  N_11 
REMARK       I    between atoms: N_9  and  C_22 
REMARK    3  A    between atoms: N_10  and  C_25 
REMARK       I    between atoms: N_11  and  C_27 
REMARK    4  A    between atoms: N_12  and  C_26 
REMARK       I    between atoms: N_12  and  C_27 
REMARK    5  A    between atoms: C_19  and  C_22 
REMARK    6  A    between atoms: C_28  and  C_33 
ROOT
ATOM      1  O   UNL d   1      14.973   4.471   5.258  0.00  0.00    -0.267 OA
ATOM      2  N   UNL d   1      17.036   3.872   6.141  0.00  0.00    -0.263 N 
ATOM      3  C   UNL d   1      15.745   3.634   5.714  0.00  0.00     0.260 C 
ATOM      4  H   UNL d   1      17.656   3.161   6.513  0.00  0.00     0.190 HD
ENDROOT
BRANCH   2   5
ATOM      5  N   UNL d   1      17.535   5.148   6.061  0.00  0.00    -0.248 N 
ATOM      6  C   UNL d   1      17.527   5.955   7.199  0.00  0.00     0.339 C 
ATOM      7  O   UNL d   1      17.092   5.581   8.286  0.00  0.00    -0.245 OA
ATOM      8  N   UNL d   1      18.077   7.206   6.908  0.00  0.00    -0.308 N 
ATOM      9  H   UNL d   1      18.393   7.352   5.952  0.00  0.00     0.170 HD
ATOM     10  H   UNL d   1      17.898   5.448   5.164  0.00  0.00     0.192 HD
BRANCH   8  11
ATOM     11  C   UNL d   1      18.251   8.304   7.782  0.00  0.00     0.037 A 
ATOM     12  C   UNL d   1      17.141   9.003   8.255  0.00  0.00     0.045 A 
ATOM     13  C   UNL d   1      17.314  10.085   9.117  0.00  0.00     0.050 A 
ATOM     14  C   UNL d   1      18.597  10.469   9.506  0.00  0.00     0.016 A 
ATOM     15  C   UNL d   1      19.707   9.770   9.034  0.00  0.00     0.003 A 
ATOM     16  C   UNL d   1      19.535   8.687   8.172  0.00  0.00     0.029 A 
BRANCH  13  17
ATOM     17  C   UNL d   1      16.126  10.833   9.622  0.00  0.00     0.417 C 
ATOM     18  F   UNL d   1      16.301  12.188   9.646  0.00  0.00    -0.166 F 
ATOM     19  F   UNL d   1      15.771  10.498  10.898  0.00  0.00    -0.166 F 
ATOM     20  F   UNL d   1      15.010  10.621   8.865  0.00  0.00    -0.166 F 
ENDBRANCH  13  17
ENDBRANCH   8  11
ENDBRANCH   2   5
BRANCH   3  21
ATOM     21  C   UNL d   1      15.376   2.204   5.873  0.00  0.00     0.078 C 
ATOM     22  C   UNL d   1      15.022   1.726   7.074  0.00  0.00    -0.071 C 
ATOM     23  C   UNL d   1      14.638   0.291   7.305  0.00  0.00     0.054 C 
ATOM     24  C   UNL d   1      14.992   2.571   8.316  0.00  0.00     0.054 C 
ATOM     25  C   UNL d   1      15.493  -0.322   8.414  0.00  0.00     0.127 C 
ATOM     26  N   UNL d   1      15.475   0.527   9.618  0.00  0.00    -0.380 N 
ATOM     27  C   UNL d   1      15.838   1.939   9.424  0.00  0.00     0.127 C 
BRANCH  26  28
ATOM     28  C   UNL d   1      15.739  -0.089  10.846  0.00  0.00     0.030 A 
ATOM     29  C   UNL d   1      16.855   0.291  11.592  0.00  0.00     0.032 A 
ATOM     30  C   UNL d   1      17.118  -0.323  12.816  0.00  0.00     0.038 A 
ATOM     31  C   UNL d   1      16.265  -1.319  13.295  0.00  0.00     0.103 A 
ATOM     32  C   UNL d   1      15.150  -1.699  12.549  0.00  0.00     0.038 A 
ATOM     33  C   UNL d   1      14.886  -1.084  11.325  0.00  0.00     0.032 A 
BRANCH  31  34
ATOM     34  N   UNL d   1      16.533  -1.945  14.541  0.00  0.00    -0.116 N 
ATOM     35  O   UNL d   1      17.689  -2.375  14.769  0.00  0.00    -0.532 OA
ATOM     36  O   UNL d   1      15.605  -2.052  15.380  0.00  0.00    -0.532 OA
ENDBRANCH  31  34
ENDBRANCH  26  28
ENDBRANCH   3  21
TORSDOF 6
ENDMDL
MODEL 8
REMARK VINA RESULT:      -6.7      9.105     14.696
REMARK  6 active torsions:
REMARK  status: ('A' for Active; 'I' for Inactive)
REMARK    1  A    between atoms: N_8  and  C_18 
REMARK    2  A    between atoms: N_9  and  N_11 
REMARK       I    between atoms: N_9  and  C_22 
REMARK    3  A    between atoms: N_10  and  C_25 
REMARK       I    between atoms: N_11  and  C_27 
REMARK    4  A    between atoms: N_12  and  C_26 
REMARK       I    between atoms: N_12  and  C_27 
REMARK    5  A    between atoms: C_19  and  C_22 
REMARK    6  A    between atoms: C_28  and  C_33 
ROOT
ATOM      1  O   UNL d   1      18.173   5.489   5.189  0.00  0.00    -0.267 OA
ATOM      2  N   UNL d   1      19.427   5.444   7.143  0.00  0.00    -0.263 N 
ATOM      3  C   UNL d   1      18.782   4.878   6.061  0.00  0.00     0.260 C 
ATOM      4  H   UNL d   1      19.926   4.916   7.851  0.00  0.00     0.190 HD
ENDROOT
BRANCH   2   5
ATOM      5  N   UNL d   1      19.407   6.809   7.287  0.00  0.00    -0.248 N 
ATOM      6  C   UNL d   1      18.341   7.407   7.958  0.00  0.00     0.339 C 
ATOM      7  O   UNL d   1      17.404   6.771   8.435  0.00  0.00    -0.245 OA
ATOM      8  N   UNL d   1      18.512   8.793   7.997  0.00  0.00    -0.308 N 
ATOM      9  H   UNL d   1      19.350   9.160   7.552  0.00  0.00     0.170 HD
ATOM     10  H   UNL d   1      20.186   7.327   6.897  0.00  0.00     0.192 HD
BRANCH   8  11
ATOM     11  C   UNL d   1      17.659   9.759   8.581  0.00  0.00     0.037 A 
ATOM     12  C   UNL d   1      17.530  11.019   8.000  0.00  0.00     0.045 A 
ATOM     13  C   UNL d   1      16.689  11.970   8.578  0.00  0.00     0.050 A 
ATOM     14  C   UNL d   1      15.977  11.661   9.736  0.00  0.00     0.016 A 
ATOM     15  C   UNL d   1      16.105  10.399  10.317  0.00  0.00     0.003 A 
ATOM     16  C   UNL d   1      16.947   9.448   9.740  0.00  0.00     0.029 A 
BRANCH  13  17
ATOM     17  C   UNL d   1      16.551  13.319   7.956  0.00  0.00     0.417 C 
ATOM     18  F   UNL d   1      17.643  14.120   8.138  0.00  0.00    -0.166 F 
ATOM     19  F   UNL d   1      15.497  14.040   8.441  0.00  0.00    -0.166 F 
ATOM     20  F   UNL d   1      16.362  13.259   6.606  0.00  0.00    -0.166 F 
ENDBRANCH  13  17
ENDBRANCH   8  11
ENDBRANCH   2   5
BRANCH   3  21
ATOM     21  C   UNL d   1      18.908   3.399   6.067  0.00  0.00     0.078 C 
ATOM     22  C   UNL d   1      18.004   2.645   6.710  0.00  0.00    -0.071 C 
ATOM     23  C   UNL d   1      18.072   1.144   6.756  0.00  0.00     0.054 C 
ATOM     24  C   UNL d   1      16.844   3.225   7.468  0.00  0.00     0.054 C 
ATOM     25  C   UNL d   1      18.051   0.649   8.204  0.00  0.00     0.127 C 
ATOM     26  N   UNL d   1      16.922   1.244   8.942  0.00  0.00    -0.380 N 
ATOM     27  C   UNL d   1      16.823   2.711   8.909  0.00  0.00     0.127 C 
BRANCH  26  28
ATOM     28  C   UNL d   1      16.441   0.545  10.055  0.00  0.00     0.030 A 
ATOM     29  C   UNL d   1      15.163  -0.014  10.029  0.00  0.00     0.032 A 
ATOM     30  C   UNL d   1      14.684  -0.711  11.137  0.00  0.00     0.038 A 
ATOM     31  C   UNL d   1      15.482  -0.848  12.274  0.00  0.00     0.103 A 
ATOM     32  C   UNL d   1      16.759  -0.289  12.300  0.00  0.00     0.038 A 
ATOM     33  C   UNL d   1      17.239   0.408  11.191  0.00  0.00     0.032 A 
BRANCH  31  34
ATOM     34  N   UNL d   1      14.994  -1.556  13.403  0.00  0.00    -0.116 N 
ATOM     35  O   UNL d   1      13.939  -2.226  13.292  0.00  0.00    -0.532 OA
ATOM     36  O   UNL d   1      15.631  -1.492  14.483  0.00  0.00    -0.532 OA
ENDBRANCH  31  34
ENDBRANCH  26  28
ENDBRANCH   3  21
TORSDOF 6
ENDMDL
MODEL 9
REMARK VINA RESULT:      -6.7      4.988      7.038
REMARK  6 active torsions:
REMARK  status: ('A' for Active; 'I' for Inactive)
REMARK    1  A    between atoms: N_8  and  C_18 
REMARK    2  A    between atoms: N_9  and  N_11 
REMARK       I    between atoms: N_9  and  C_22 
REMARK    3  A    between atoms: N_10  and  C_25 
REMARK       I    between atoms: N_11  and  C_27 
REMARK    4  A    between atoms: N_12  and  C_26 
REMARK       I    between atoms: N_12  and  C_27 
REMARK    5  A    between atoms: C_19  and  C_22 
REMARK    6  A    between atoms: C_28  and  C_33 
ROOT
ATOM      1  O   UNL d   1      18.084   0.112   8.945  0.00  0.00    -0.267 OA
ATOM      2  N   UNL d   1      17.270   1.602  10.530  0.00  0.00    -0.263 N 
ATOM      3  C   UNL d   1      17.493   1.145   9.247  0.00  0.00     0.260 C 
ATOM      4  H   UNL d   1      16.776   2.460  10.754  0.00  0.00     0.190 HD
ENDROOT
BRANCH   2   5
ATOM      5  N   UNL d   1      17.735   0.862  11.589  0.00  0.00    -0.248 N 
ATOM      6  C   UNL d   1      16.921  -0.129  12.136  0.00  0.00     0.339 C 
ATOM      7  O   UNL d   1      15.794  -0.381  11.718  0.00  0.00    -0.245 OA
ATOM      8  N   UNL d   1      17.577  -0.761  13.195  0.00  0.00    -0.308 N 
ATOM      9  H   UNL d   1      18.514  -0.429  13.413  0.00  0.00     0.170 HD
ATOM     10  H   UNL d   1      18.668   1.071  11.925  0.00  0.00     0.192 HD
BRANCH   8  11
ATOM     11  C   UNL d   1      17.099  -1.814  14.010  0.00  0.00     0.037 A 
ATOM     12  C   UNL d   1      17.826  -2.999  14.118  0.00  0.00     0.045 A 
ATOM     13  C   UNL d   1      17.353  -4.036  14.922  0.00  0.00     0.050 A 
ATOM     14  C   UNL d   1      16.154  -3.889  15.617  0.00  0.00     0.016 A 
ATOM     15  C   UNL d   1      15.427  -2.703  15.510  0.00  0.00     0.003 A 
ATOM     16  C   UNL d   1      15.899  -1.666  14.707  0.00  0.00     0.029 A 
BRANCH  13  17
ATOM     17  C   UNL d   1      18.131  -5.304  15.036  0.00  0.00     0.417 C 
ATOM     18  F   UNL d   1      17.649  -6.158  15.988  0.00  0.00    -0.166 F 
ATOM     19  F   UNL d   1      19.444  -5.113  15.362  0.00  0.00    -0.166 F 
ATOM     20  F   UNL d   1      18.143  -6.020  13.874  0.00  0.00    -0.166 F 
ENDBRANCH  13  17
ENDBRANCH   8  11
ENDBRANCH   2   5
BRANCH   3  21
ATOM     21  C   UNL d   1      16.922   2.068   8.234  0.00  0.00     0.078 C 
ATOM     22  C   UNL d   1      15.597   2.109   8.027  0.00  0.00    -0.071 C 
ATOM     23  C   UNL d   1      14.953   3.019   7.019  0.00  0.00     0.054 C 
ATOM     24  C   UNL d   1      14.625   1.233   8.766  0.00  0.00     0.054 C 
ATOM     25  C   UNL d   1      14.081   2.217   6.052  0.00  0.00     0.127 C 
ATOM     26  N   UNL d   1      13.148   1.346   6.788  0.00  0.00    -0.380 N 
ATOM     27  C   UNL d   1      13.748   0.448   7.788  0.00  0.00     0.127 C 
BRANCH  26  28
ATOM     28  C   UNL d   1      11.973   0.961   6.134  0.00  0.00     0.030 A 
ATOM     29  C   UNL d   1      10.732   1.319   6.661  0.00  0.00     0.032 A 
ATOM     30  C   UNL d   1       9.560   0.937   6.009  0.00  0.00     0.038 A 
ATOM     31  C   UNL d   1       9.629   0.194   4.829  0.00  0.00     0.103 A 
ATOM     32  C   UNL d   1      10.869  -0.164   4.303  0.00  0.00     0.038 A 
ATOM     33  C   UNL d   1      12.041   0.219   4.955  0.00  0.00     0.032 A 
BRANCH  31  34
ATOM     34  N   UNL d   1       8.436  -0.197   4.165  0.00  0.00    -0.116 N 
ATOM     35  O   UNL d   1       8.519  -0.765   3.050  0.00  0.00    -0.532 OA
ATOM     36  O   UNL d   1       7.331   0.038   4.712  0.00  0.00    -0.532 OA
ENDBRANCH  31  34
ENDBRANCH  26  28
ENDBRANCH   3  21
TORSDOF 6
ENDMDL
