MODEL 1
REMARK VINA RESULT:      -5.1      0.000      0.000
REMARK  3 active torsions:
REMARK  status: ('A' for Active; 'I' for Inactive)
REMARK    1  A    between atoms: C_11  and  C_12 
REMARK    2  A    between atoms: C_11  and  C_13 
REMARK    3  A    between atoms: C_12  and  C_14 
ROOT
ATOM      1  C   UNL d   1      15.701  -6.442  12.828  0.00  0.00     0.045 C 
ENDROOT
BRANCH   1   2
ATOM      2  C   UNL d   1      14.499  -5.496  12.980  0.00  0.00     0.045 C 
BRANCH   2   3
ATOM      3  C   UNL d   1      14.691  -4.169  12.286  0.00  0.00    -0.020 A 
ATOM      4  C   UNL d   1      14.544  -4.086  10.905  0.00  0.00     0.037 A 
ATOM      5 BR   UNL d   1      14.095  -5.683   9.942  0.00  0.00    -0.049 Br
ATOM      6  C   UNL d   1      14.722  -2.861  10.264  0.00  0.00     0.047 A 
ATOM      7 BR   UNL d   1      14.520  -2.756   8.353  0.00  0.00    -0.048 Br
ATOM      8  C   UNL d   1      15.049  -1.726  11.005  0.00  0.00     0.048 A 
ATOM      9 BR   UNL d   1      15.296  -0.035  10.119  0.00  0.00    -0.048 Br
ATOM     10  C   UNL d   1      15.197  -1.816  12.390  0.00  0.00     0.047 A 
ATOM     11 BR   UNL d   1      15.643  -0.259  13.428  0.00  0.00    -0.048 Br
ATOM     12  C   UNL d   1      15.018  -3.042  13.031  0.00  0.00     0.037 A 
ATOM     13 BR   UNL d   1      15.207  -3.231  14.930  0.00  0.00    -0.049 Br
ENDBRANCH   2   3
ENDBRANCH   1   2
BRANCH   1  14
ATOM     14  C   UNL d   1      15.691  -7.591  13.795  0.00  0.00    -0.020 A 
ATOM     15  C   UNL d   1      14.849  -8.681  13.573  0.00  0.00     0.037 A 
ATOM     16 BR   UNL d   1      13.730  -8.652  12.016  0.00  0.00    -0.049 Br
ATOM     17  C   UNL d   1      14.837  -9.748  14.472  0.00  0.00     0.047 A 
ATOM     18 BR   UNL d   1      13.666 -11.241  14.154  0.00  0.00    -0.048 Br
ATOM     19  C   UNL d   1      15.668  -9.726  15.592  0.00  0.00     0.048 A 
ATOM     20 BR   UNL d   1      15.652 -11.198  16.832  0.00  0.00    -0.048 Br
ATOM     21  C   UNL d   1      16.510  -8.636  15.814  0.00  0.00     0.047 A 
ATOM     22 BR   UNL d   1      17.665  -8.589  17.352  0.00  0.00    -0.048 Br
ATOM     23  C   UNL d   1      16.521  -7.569  14.915  0.00  0.00     0.037 A 
ATOM     24 BR   UNL d   1      17.655  -6.041  15.164  0.00  0.00    -0.049 Br
ENDBRANCH   1  14
TORSDOF 3
ENDMDL
MODEL 2
REMARK VINA RESULT:      -5.1      3.217      9.341
REMARK  3 active torsions:
REMARK  status: ('A' for Active; 'I' for Inactive)
REMARK    1  A    between atoms: C_11  and  C_12 
REMARK    2  A    between atoms: C_11  and  C_13 
REMARK    3  A    between atoms: C_12  and  C_14 
ROOT
ATOM      1  C   UNL d   1      15.516  -1.298   9.262  0.00  0.00     0.045 C 
ENDROOT
BRANCH   1   2
ATOM      2  C   UNL d   1      14.534  -1.464  10.433  0.00  0.00     0.045 C 
BRANCH   2   3
ATOM      3  C   UNL d   1      15.009  -2.443  11.479  0.00  0.00    -0.020 A 
ATOM      4  C   UNL d   1      15.903  -2.025  12.459  0.00  0.00     0.037 A 
ATOM      5 BR   UNL d   1      16.492  -0.199  12.431  0.00  0.00    -0.049 Br
ATOM      6  C   UNL d   1      16.344  -2.928  13.424  0.00  0.00     0.047 A 
ATOM      7 BR   UNL d   1      17.584  -2.343  14.773  0.00  0.00    -0.048 Br
ATOM      8  C   UNL d   1      15.890  -4.247  13.404  0.00  0.00     0.048 A 
ATOM      9 BR   UNL d   1      16.499  -5.496  14.737  0.00  0.00    -0.048 Br
ATOM     10  C   UNL d   1      14.994  -4.661  12.418  0.00  0.00     0.047 A 
ATOM     11 BR   UNL d   1      14.354  -6.475  12.378  0.00  0.00    -0.048 Br
ATOM     12  C   UNL d   1      14.553  -3.756  11.453  0.00  0.00     0.037 A 
ATOM     13 BR   UNL d   1      13.323  -4.263  10.072  0.00  0.00    -0.049 Br
ENDBRANCH   2   3
ENDBRANCH   1   2
BRANCH   1  14
ATOM     14  C   UNL d   1      14.916  -0.627   8.060  0.00  0.00    -0.020 A 
ATOM     15  C   UNL d   1      14.433  -1.396   7.002  0.00  0.00     0.037 A 
ATOM     16 BR   UNL d   1      14.565  -3.304   7.141  0.00  0.00    -0.049 Br
ATOM     17  C   UNL d   1      13.877  -0.773   5.884  0.00  0.00     0.047 A 
ATOM     18 BR   UNL d   1      13.222  -1.848   4.429  0.00  0.00    -0.048 Br
ATOM     19  C   UNL d   1      13.803   0.618   5.825  0.00  0.00     0.048 A 
ATOM     20 BR   UNL d   1      13.035   1.478   4.283  0.00  0.00    -0.048 Br
ATOM     21  C   UNL d   1      14.286   1.388   6.884  0.00  0.00     0.047 A 
ATOM     22 BR   UNL d   1      14.188   3.308   6.822  0.00  0.00    -0.048 Br
ATOM     23  C   UNL d   1      14.841   0.764   8.002  0.00  0.00     0.037 A 
ATOM     24 BR   UNL d   1      15.523   1.765   9.490  0.00  0.00    -0.049 Br
ENDBRANCH   1  14
TORSDOF 3
ENDMDL
MODEL 3
REMARK VINA RESULT:      -5.1      0.168      3.587
REMARK  3 active torsions:
REMARK  status: ('A' for Active; 'I' for Inactive)
REMARK    1  A    between atoms: C_11  and  C_12 
REMARK    2  A    between atoms: C_11  and  C_13 
REMARK    3  A    between atoms: C_12  and  C_14 
ROOT
ATOM      1  C   UNL d   1      15.720  -6.431  12.659  0.00  0.00     0.045 C 
ENDROOT
BRANCH   1   2
ATOM      2  C   UNL d   1      14.504  -5.497  12.771  0.00  0.00     0.045 C 
BRANCH   2   3
ATOM      3  C   UNL d   1      14.711  -4.162  12.099  0.00  0.00    -0.020 A 
ATOM      4  C   UNL d   1      15.031  -3.046  12.865  0.00  0.00     0.037 A 
ATOM      5 BR   UNL d   1      15.198  -3.268  14.764  0.00  0.00    -0.049 Br
ATOM      6  C   UNL d   1      15.221  -1.813  12.245  0.00  0.00     0.047 A 
ATOM      7 BR   UNL d   1      15.660  -0.274  13.314  0.00  0.00    -0.048 Br
ATOM      8  C   UNL d   1      15.089  -1.699  10.861  0.00  0.00     0.048 A 
ATOM      9 BR   UNL d   1      15.351   0.005  10.005  0.00  0.00    -0.048 Br
ATOM     10  C   UNL d   1      14.767  -2.822  10.098  0.00  0.00     0.047 A 
ATOM     11 BR   UNL d   1      14.584  -2.684   8.187  0.00  0.00    -0.048 Br
ATOM     12  C   UNL d   1      14.577  -4.056  10.719  0.00  0.00     0.037 A 
ATOM     13 BR   UNL d   1      14.132  -5.635   9.725  0.00  0.00    -0.049 Br
ENDBRANCH   2   3
ENDBRANCH   1   2
BRANCH   1  14
ATOM     14  C   UNL d   1      15.697  -7.573  13.634  0.00  0.00    -0.020 A 
ATOM     15  C   UNL d   1      16.507  -7.537  14.768  0.00  0.00     0.037 A 
ATOM     16 BR   UNL d   1      17.627  -6.002  15.026  0.00  0.00    -0.049 Br
ATOM     17  C   UNL d   1      16.487  -8.599  15.673  0.00  0.00     0.047 A 
ATOM     18 BR   UNL d   1      17.616  -8.536  17.231  0.00  0.00    -0.048 Br
ATOM     19  C   UNL d   1      15.657  -9.696  15.444  0.00  0.00     0.048 A 
ATOM     20 BR   UNL d   1      15.630 -11.160  16.694  0.00  0.00    -0.048 Br
ATOM     21  C   UNL d   1      14.847  -9.732  14.309  0.00  0.00     0.047 A 
ATOM     22 BR   UNL d   1      13.693 -11.235  13.979  0.00  0.00    -0.048 Br
ATOM     23  C   UNL d   1      14.867  -8.670  13.404  0.00  0.00     0.037 A 
ATOM     24 BR   UNL d   1      13.777  -8.659  11.825  0.00  0.00    -0.049 Br
ENDBRANCH   1  14
TORSDOF 3
ENDMDL
MODEL 4
REMARK VINA RESULT:      -5.0      0.314      7.510
REMARK  3 active torsions:
REMARK  status: ('A' for Active; 'I' for Inactive)
REMARK    1  A    between atoms: C_11  and  C_12 
REMARK    2  A    between atoms: C_11  and  C_13 
REMARK    3  A    between atoms: C_12  and  C_14 
ROOT
ATOM      1  C   UNL d   1      14.520  -5.629  13.246  0.00  0.00     0.045 C 
ENDROOT
BRANCH   1   2
ATOM      2  C   UNL d   1      15.648  -6.646  13.007  0.00  0.00     0.045 C 
BRANCH   2   3
ATOM      3  C   UNL d   1      15.661  -7.772  14.011  0.00  0.00    -0.020 A 
ATOM      4  C   UNL d   1      14.795  -8.848  13.851  0.00  0.00     0.037 A 
ATOM      5 BR   UNL d   1      13.613  -8.845  12.339  0.00  0.00    -0.049 Br
ATOM      6  C   UNL d   1      14.804  -9.888  14.778  0.00  0.00     0.047 A 
ATOM      7 BR   UNL d   1      13.599 -11.371  14.552  0.00  0.00    -0.048 Br
ATOM      8  C   UNL d   1      15.680  -9.848  15.863  0.00  0.00     0.048 A 
ATOM      9 BR   UNL d   1      15.695 -11.284  17.145  0.00  0.00    -0.048 Br
ATOM     10  C   UNL d   1      16.547  -8.765  16.019  0.00  0.00     0.047 A 
ATOM     11 BR   UNL d   1      17.765  -8.695  17.507  0.00  0.00    -0.048 Br
ATOM     12  C   UNL d   1      16.536  -7.725  15.090  0.00  0.00     0.037 A 
ATOM     13 BR   UNL d   1      17.702  -6.210  15.249  0.00  0.00    -0.049 Br
ENDBRANCH   2   3
ENDBRANCH   1   2
BRANCH   1  14
ATOM     14  C   UNL d   1      14.671  -4.362  12.455  0.00  0.00    -0.020 A 
ATOM     15  C   UNL d   1      14.469  -4.373  11.075  0.00  0.00     0.037 A 
ATOM     16 BR   UNL d   1      14.000  -6.038  10.248  0.00  0.00    -0.049 Br
ATOM     17  C   UNL d   1      14.611  -3.196  10.339  0.00  0.00     0.047 A 
ATOM     18 BR   UNL d   1      14.334  -3.231   8.436  0.00  0.00    -0.048 Br
ATOM     19  C   UNL d   1      14.955  -2.008  10.983  0.00  0.00     0.048 A 
ATOM     20 BR   UNL d   1      15.151  -0.384   9.968  0.00  0.00    -0.048 Br
ATOM     21  C   UNL d   1      15.158  -1.996  12.364  0.00  0.00     0.047 A 
ATOM     22 BR   UNL d   1      15.630  -0.366  13.269  0.00  0.00    -0.048 Br
ATOM     23  C   UNL d   1      15.016  -3.173  13.099  0.00  0.00     0.037 A 
ATOM     24 BR   UNL d   1      15.282  -3.224  14.998  0.00  0.00    -0.049 Br
ENDBRANCH   1  14
TORSDOF 3
ENDMDL
MODEL 5
REMARK VINA RESULT:      -5.0      3.237      6.369
REMARK  3 active torsions:
REMARK  status: ('A' for Active; 'I' for Inactive)
REMARK    1  A    between atoms: C_11  and  C_12 
REMARK    2  A    between atoms: C_11  and  C_13 
REMARK    3  A    between atoms: C_12  and  C_14 
ROOT
ATOM      1  C   UNL d   1      14.550  -1.459  10.404  0.00  0.00     0.045 C 
ENDROOT
BRANCH   1   2
ATOM      2  C   UNL d   1      15.537  -1.271   9.241  0.00  0.00     0.045 C 
BRANCH   2   3
ATOM      3  C   UNL d   1      14.925  -0.594   8.039  0.00  0.00    -0.020 A 
ATOM      4  C   UNL d   1      14.437  -1.362   6.988  0.00  0.00     0.037 A 
ATOM      5 BR   UNL d   1      14.568  -3.272   7.123  0.00  0.00    -0.049 Br
ATOM      6  C   UNL d   1      13.874  -0.737   5.877  0.00  0.00     0.047 A 
ATOM      7 BR   UNL d   1      13.205  -1.808   4.425  0.00  0.00    -0.048 Br
ATOM      8  C   UNL d   1      13.801   0.655   5.821  0.00  0.00     0.048 A 
ATOM      9 BR   UNL d   1      13.022   1.518   4.288  0.00  0.00    -0.048 Br
ATOM     10  C   UNL d   1      14.292   1.421   6.879  0.00  0.00     0.047 A 
ATOM     11 BR   UNL d   1      14.197   3.342   6.821  0.00  0.00    -0.048 Br
ATOM     12  C   UNL d   1      14.857   0.794   7.990  0.00  0.00     0.037 A 
ATOM     13 BR   UNL d   1      15.550   1.791   9.475  0.00  0.00    -0.049 Br
ENDBRANCH   2   3
ENDBRANCH   1   2
BRANCH   1  14
ATOM     14  C   UNL d   1      15.026  -2.423  11.451  0.00  0.00    -0.020 A 
ATOM     15  C   UNL d   1      15.922  -2.000  12.432  0.00  0.00     0.037 A 
ATOM     16 BR   UNL d   1      16.509  -0.175  12.389  0.00  0.00    -0.049 Br
ATOM     17  C   UNL d   1      16.366  -2.897  13.405  0.00  0.00     0.047 A 
ATOM     18 BR   UNL d   1      17.608  -2.299  14.748  0.00  0.00    -0.048 Br
ATOM     19  C   UNL d   1      15.914  -4.216  13.396  0.00  0.00     0.048 A 
ATOM     20 BR   UNL d   1      16.526  -5.453  14.738  0.00  0.00    -0.048 Br
ATOM     21  C   UNL d   1      15.017  -4.639  12.415  0.00  0.00     0.047 A 
ATOM     22 BR   UNL d   1      14.379  -6.454  12.390  0.00  0.00    -0.048 Br
ATOM     23  C   UNL d   1      14.573  -3.742  11.443  0.00  0.00     0.037 A 
ATOM     24 BR   UNL d   1      13.342  -4.262  10.067  0.00  0.00    -0.049 Br
ENDBRANCH   1  14
TORSDOF 3
ENDMDL
MODEL 6
REMARK VINA RESULT:      -5.0      3.232      6.746
REMARK  3 active torsions:
REMARK  status: ('A' for Active; 'I' for Inactive)
REMARK    1  A    between atoms: C_11  and  C_12 
REMARK    2  A    between atoms: C_11  and  C_13 
REMARK    3  A    between atoms: C_12  and  C_14 
ROOT
ATOM      1  C   UNL d   1      14.545  -1.473  10.399  0.00  0.00     0.045 C 
ENDROOT
BRANCH   1   2
ATOM      2  C   UNL d   1      15.534  -1.289   9.236  0.00  0.00     0.045 C 
BRANCH   2   3
ATOM      3  C   UNL d   1      14.919  -0.624   8.028  0.00  0.00    -0.020 A 
ATOM      4  C   UNL d   1      14.836   0.763   7.972  0.00  0.00     0.037 A 
ATOM      5 BR   UNL d   1      15.518   1.773   9.454  0.00  0.00    -0.049 Br
ATOM      6  C   UNL d   1      14.267   1.377   6.858  0.00  0.00     0.047 A 
ATOM      7 BR   UNL d   1      14.152   3.297   6.791  0.00  0.00    -0.048 Br
ATOM      8  C   UNL d   1      13.783   0.602   5.804  0.00  0.00     0.048 A 
ATOM      9 BR   UNL d   1      12.998   1.450   4.265  0.00  0.00    -0.048 Br
ATOM     10  C   UNL d   1      13.869  -0.790   5.867  0.00  0.00     0.047 A 
ATOM     11 BR   UNL d   1      13.210  -1.875   4.421  0.00  0.00    -0.048 Br
ATOM     12  C   UNL d   1      14.439  -1.404   6.982  0.00  0.00     0.037 A 
ATOM     13 BR   UNL d   1      14.585  -3.310   7.127  0.00  0.00    -0.049 Br
ENDBRANCH   2   3
ENDBRANCH   1   2
BRANCH   1  14
ATOM     14  C   UNL d   1      15.020  -2.435  11.449  0.00  0.00    -0.020 A 
ATOM     15  C   UNL d   1      15.923  -2.013  12.424  0.00  0.00     0.037 A 
ATOM     16 BR   UNL d   1      16.519  -0.191  12.370  0.00  0.00    -0.049 Br
ATOM     17  C   UNL d   1      16.367  -2.907  13.399  0.00  0.00     0.047 A 
ATOM     18 BR   UNL d   1      17.616  -2.309  14.734  0.00  0.00    -0.048 Br
ATOM     19  C   UNL d   1      15.907  -4.224  13.399  0.00  0.00     0.048 A 
ATOM     20 BR   UNL d   1      16.519  -5.458  14.744  0.00  0.00    -0.048 Br
ATOM     21  C   UNL d   1      15.004  -4.647  12.423  0.00  0.00     0.047 A 
ATOM     22 BR   UNL d   1      14.357  -6.458  12.409  0.00  0.00    -0.048 Br
ATOM     23  C   UNL d   1      14.561  -3.752  11.449  0.00  0.00     0.037 A 
ATOM     24 BR   UNL d   1      13.321  -4.272  10.080  0.00  0.00    -0.049 Br
ENDBRANCH   1  14
TORSDOF 3
ENDMDL
MODEL 7
REMARK VINA RESULT:      -5.0      3.193      9.579
REMARK  3 active torsions:
REMARK  status: ('A' for Active; 'I' for Inactive)
REMARK    1  A    between atoms: C_11  and  C_12 
REMARK    2  A    between atoms: C_11  and  C_13 
REMARK    3  A    between atoms: C_12  and  C_14 
ROOT
ATOM      1  C   UNL d   1      15.530  -1.309   9.303  0.00  0.00     0.045 C 
ENDROOT
BRANCH   1   2
ATOM      2  C   UNL d   1      14.533  -1.504  10.457  0.00  0.00     0.045 C 
BRANCH   2   3
ATOM      3  C   UNL d   1      15.015  -2.478  11.505  0.00  0.00    -0.020 A 
ATOM      4  C   UNL d   1      15.915  -2.056  12.478  0.00  0.00     0.037 A 
ATOM      5 BR   UNL d   1      16.505  -0.230  12.437  0.00  0.00    -0.049 Br
ATOM      6  C   UNL d   1      16.361  -2.955  13.444  0.00  0.00     0.047 A 
ATOM      7 BR   UNL d   1      17.610  -2.363  14.783  0.00  0.00    -0.048 Br
ATOM      8  C   UNL d   1      15.906  -4.274  13.434  0.00  0.00     0.048 A 
ATOM      9 BR   UNL d   1      16.522  -5.516  14.769  0.00  0.00    -0.048 Br
ATOM     10  C   UNL d   1      15.003  -4.691  12.456  0.00  0.00     0.047 A 
ATOM     11 BR   UNL d   1      14.362  -6.505  12.429  0.00  0.00    -0.048 Br
ATOM     12  C   UNL d   1      14.557  -3.791  11.489  0.00  0.00     0.037 A 
ATOM     13 BR   UNL d   1      13.318  -4.304  10.118  0.00  0.00    -0.049 Br
ENDBRANCH   2   3
ENDBRANCH   1   2
BRANCH   1  14
ATOM     14  C   UNL d   1      14.936  -0.636   8.099  0.00  0.00    -0.020 A 
ATOM     15  C   UNL d   1      14.871   0.755   8.040  0.00  0.00     0.037 A 
ATOM     16 BR   UNL d   1      15.557   1.753   9.527  0.00  0.00    -0.049 Br
ATOM     17  C   UNL d   1      14.316   1.381   6.922  0.00  0.00     0.047 A 
ATOM     18 BR   UNL d   1      14.229   3.302   6.859  0.00  0.00    -0.048 Br
ATOM     19  C   UNL d   1      13.828   0.615   5.864  0.00  0.00     0.048 A 
ATOM     20 BR   UNL d   1      13.064   1.478   4.322  0.00  0.00    -0.048 Br
ATOM     21  C   UNL d   1      13.893  -0.778   5.924  0.00  0.00     0.047 A 
ATOM     22 BR   UNL d   1      13.228  -1.851   4.472  0.00  0.00    -0.048 Br
ATOM     23  C   UNL d   1      14.447  -1.403   7.041  0.00  0.00     0.037 A 
ATOM     24 BR   UNL d   1      14.564  -3.312   7.185  0.00  0.00    -0.049 Br
ENDBRANCH   1  14
TORSDOF 3
ENDMDL
MODEL 8
REMARK VINA RESULT:      -5.0      3.238      5.883
REMARK  3 active torsions:
REMARK  status: ('A' for Active; 'I' for Inactive)
REMARK    1  A    between atoms: C_11  and  C_12 
REMARK    2  A    between atoms: C_11  and  C_13 
REMARK    3  A    between atoms: C_12  and  C_14 
ROOT
ATOM      1  C   UNL d   1      14.535  -1.455  10.385  0.00  0.00     0.045 C 
ENDROOT
BRANCH   1   2
ATOM      2  C   UNL d   1      15.521  -1.277   9.219  0.00  0.00     0.045 C 
BRANCH   2   3
ATOM      3  C   UNL d   1      14.912  -0.597   8.018  0.00  0.00    -0.020 A 
ATOM      4  C   UNL d   1      14.429  -1.363   6.962  0.00  0.00     0.037 A 
ATOM      5 BR   UNL d   1      14.564  -3.272   7.092  0.00  0.00    -0.049 Br
ATOM      6  C   UNL d   1      13.867  -0.735   5.852  0.00  0.00     0.047 A 
ATOM      7 BR   UNL d   1      13.207  -1.803   4.394  0.00  0.00    -0.048 Br
ATOM      8  C   UNL d   1      13.791   0.657   5.801  0.00  0.00     0.048 A 
ATOM      9 BR   UNL d   1      13.016   1.524   4.268  0.00  0.00    -0.048 Br
ATOM     10  C   UNL d   1      14.278   1.420   6.863  0.00  0.00     0.047 A 
ATOM     11 BR   UNL d   1      14.177   3.341   6.812  0.00  0.00    -0.048 Br
ATOM     12  C   UNL d   1      14.839   0.791   7.974  0.00  0.00     0.037 A 
ATOM     13 BR   UNL d   1      15.526   1.785   9.464  0.00  0.00    -0.049 Br
ENDBRANCH   2   3
ENDBRANCH   1   2
BRANCH   1  14
ATOM     14  C   UNL d   1      15.005  -2.422  11.432  0.00  0.00    -0.020 A 
ATOM     15  C   UNL d   1      14.550  -3.740  11.419  0.00  0.00     0.037 A 
ATOM     16 BR   UNL d   1      13.324  -4.255  10.036  0.00  0.00    -0.049 Br
ATOM     17  C   UNL d   1      14.985  -4.639  12.393  0.00  0.00     0.047 A 
ATOM     18 BR   UNL d   1      14.342  -6.452  12.363  0.00  0.00    -0.048 Br
ATOM     19  C   UNL d   1      15.875  -4.220  13.381  0.00  0.00     0.048 A 
ATOM     20 BR   UNL d   1      16.476  -5.460  14.725  0.00  0.00    -0.048 Br
ATOM     21  C   UNL d   1      16.331  -2.901  13.395  0.00  0.00     0.047 A 
ATOM     22 BR   UNL d   1      17.563  -2.307  14.747  0.00  0.00    -0.048 Br
ATOM     23  C   UNL d   1      15.896  -2.003  12.420  0.00  0.00     0.037 A 
ATOM     24 BR   UNL d   1      16.484  -0.177  12.385  0.00  0.00    -0.049 Br
ENDBRANCH   1  14
TORSDOF 3
ENDMDL
MODEL 9
REMARK VINA RESULT:      -5.0      3.225      9.337
REMARK  3 active torsions:
REMARK  status: ('A' for Active; 'I' for Inactive)
REMARK    1  A    between atoms: C_11  and  C_12 
REMARK    2  A    between atoms: C_11  and  C_13 
REMARK    3  A    between atoms: C_12  and  C_14 
ROOT
ATOM      1  C   UNL d   1      15.519  -1.301   9.242  0.00  0.00     0.045 C 
ENDROOT
BRANCH   1   2
ATOM      2  C   UNL d   1      14.536  -1.469  10.412  0.00  0.00     0.045 C 
BRANCH   2   3
ATOM      3  C   UNL d   1      15.015  -2.443  11.461  0.00  0.00    -0.020 A 
ATOM      4  C   UNL d   1      14.556  -3.756  11.444  0.00  0.00     0.037 A 
ATOM      5 BR   UNL d   1      13.321  -4.267  10.068  0.00  0.00    -0.049 Br
ATOM      6  C   UNL d   1      14.997  -4.655  12.413  0.00  0.00     0.047 A 
ATOM      7 BR   UNL d   1      14.353  -6.468  12.385  0.00  0.00    -0.048 Br
ATOM      8  C   UNL d   1      15.895  -4.238  13.396  0.00  0.00     0.048 A 
ATOM      9 BR   UNL d   1      16.504  -5.480  14.734  0.00  0.00    -0.048 Br
ATOM     10  C   UNL d   1      16.351  -2.919  13.408  0.00  0.00     0.047 A 
ATOM     11 BR   UNL d   1      17.593  -2.328  14.754  0.00  0.00    -0.048 Br
ATOM     12  C   UNL d   1      15.910  -2.020  12.438  0.00  0.00     0.037 A 
ATOM     13 BR   UNL d   1      16.500  -0.195  12.401  0.00  0.00    -0.049 Br
ENDBRANCH   2   3
ENDBRANCH   1   2
BRANCH   1  14
ATOM     14  C   UNL d   1      14.918  -0.631   8.040  0.00  0.00    -0.020 A 
ATOM     15  C   UNL d   1      14.842   0.760   7.983  0.00  0.00     0.037 A 
ATOM     16 BR   UNL d   1      15.522   1.761   9.471  0.00  0.00    -0.049 Br
ATOM     17  C   UNL d   1      14.282   1.383   6.867  0.00  0.00     0.047 A 
ATOM     18 BR   UNL d   1      14.179   3.304   6.807  0.00  0.00    -0.048 Br
ATOM     19  C   UNL d   1      13.799   0.615   5.808  0.00  0.00     0.048 A 
ATOM     20 BR   UNL d   1      13.026   1.474   4.268  0.00  0.00    -0.048 Br
ATOM     21  C   UNL d   1      13.875  -0.777   5.865  0.00  0.00     0.047 A 
ATOM     22 BR   UNL d   1      13.217  -1.853   4.413  0.00  0.00    -0.048 Br
ATOM     23  C   UNL d   1      14.435  -1.399   6.982  0.00  0.00     0.037 A 
ATOM     24 BR   UNL d   1      14.568  -3.308   7.121  0.00  0.00    -0.049 Br
ENDBRANCH   1  14
TORSDOF 3
ENDMDL
