MODEL 1
REMARK VINA RESULT:      -5.8      0.000      0.000
REMARK  8 active torsions:
REMARK  status: ('A' for Active; 'I' for Inactive)
REMARK    1  A    between atoms: O_4  and  C_14 
REMARK    2  A    between atoms: O_4  and  C_18 
REMARK    3  A    between atoms: O_5  and  C_17 
REMARK    4  A    between atoms: O_7  and  C_23 
REMARK    5  A    between atoms: N_8  and  CA_10 
REMARK    6  A    between atoms: C_9  and  CA_10 
REMARK    7  A    between atoms: C_9  and  C_11 
REMARK    8  A    between atoms: CA_10  and  C_17 
ROOT
ATOM      1  I   UNL d   1      19.868  -6.716  14.403  0.00  0.00    -0.042 I 
ATOM      2  I   UNL d   1      13.773  -6.953  14.188  0.00  0.00    -0.042 I 
ATOM      3  C   UNL d   1      16.698  -3.778  14.423  0.00  0.00    -0.053 A 
ATOM      4  C   UNL d   1      15.518  -4.502  14.352  0.00  0.00     0.028 A 
ATOM      5  C   UNL d   1      17.932  -4.408  14.437  0.00  0.00     0.028 A 
ATOM      6  C   UNL d   1      16.810  -6.543  14.309  0.00  0.00     0.109 A 
ATOM      7  C   UNL d   1      17.987  -5.800  14.380  0.00  0.00     0.042 A 
ATOM      8  C   UNL d   1      15.575  -5.894  14.295  0.00  0.00     0.042 A 
ENDROOT
BRANCH   6   9
ATOM      9  O   UNL d   1      16.864  -7.907  14.252  0.00  0.00    -0.308 OA
BRANCH   9  10
ATOM     10  C   UNL d   1      16.565  -8.607  15.406  0.00  0.00     0.077 A 
ATOM     11  C   UNL d   1      16.128  -9.917  15.309  0.00  0.00     0.058 A 
ATOM     12  C   UNL d   1      15.827 -10.623  16.473  0.00  0.00     0.042 A 
ATOM     13  I   UNL d   1      15.168 -12.599  16.301  0.00  0.00    -0.042 I 
ATOM     14  C   UNL d   1      15.966 -10.007  17.717  0.00  0.00     0.082 A 
ATOM     15  C   UNL d   1      16.408  -8.687  17.797  0.00  0.00     0.040 A 
ATOM     16  C   UNL d   1      16.709  -7.982  16.631  0.00  0.00     0.040 A 
BRANCH  14  17
ATOM     17  O   UNL d   1      15.682 -10.661  18.879  0.00  0.00    -0.359 OA
ATOM     18  H   UNL d   1      14.795 -10.404  19.184  0.00  0.00     0.217 HD
ENDBRANCH  14  17
ENDBRANCH   9  10
ENDBRANCH   6   9
BRANCH   3  19
ATOM     19  C   UNL d   1      16.637  -2.270  14.484  0.00  0.00     0.085 C 
BRANCH  19  20
ATOM     20  CA  UNL d   1      16.452  -1.622  13.103  0.00  0.00     0.318 C 
BRANCH  20  21
ATOM     21  N   UNL d   1      17.408  -0.530  12.937  0.00  0.00     0.093 N 
ATOM     22  H1  UNL d   1      17.906  -0.374  13.812  0.00  0.00     0.314 HD
ATOM     23  H2  UNL d   1      16.910   0.339  12.742  0.00  0.00     0.314 HD
ENDBRANCH  20  21
BRANCH  20  24
ATOM     24  C   UNL d   1      15.069  -1.018  12.936  0.00  0.00     0.174 C 
ATOM     25  OXT UNL d   1      14.840   0.175  12.783  0.00  0.00    -0.648 OA
BRANCH  24  26
ATOM     26  O   UNL d   1      14.090  -1.960  12.938  0.00  0.00    -0.775 OA
ATOM     27  H   UNL d   1      14.367  -2.775  12.467  0.00  0.00     0.167 HD
ENDBRANCH  24  26
ENDBRANCH  20  24
ENDBRANCH  19  20
ENDBRANCH   3  19
TORSDOF 8
ENDMDL
MODEL 2
REMARK VINA RESULT:      -5.5      2.487      3.181
REMARK  8 active torsions:
REMARK  status: ('A' for Active; 'I' for Inactive)
REMARK    1  A    between atoms: O_4  and  C_14 
REMARK    2  A    between atoms: O_4  and  C_18 
REMARK    3  A    between atoms: O_5  and  C_17 
REMARK    4  A    between atoms: O_7  and  C_23 
REMARK    5  A    between atoms: N_8  and  CA_10 
REMARK    6  A    between atoms: C_9  and  CA_10 
REMARK    7  A    between atoms: C_9  and  C_11 
REMARK    8  A    between atoms: CA_10  and  C_17 
ROOT
ATOM      1  I   UNL d   1      15.403  -6.805  10.617  0.00  0.00    -0.042 I 
ATOM      2  I   UNL d   1      17.785  -8.166  16.069  0.00  0.00    -0.042 I 
ATOM      3  C   UNL d   1      16.505  -4.525  14.120  0.00  0.00    -0.053 A 
ATOM      4  C   UNL d   1      16.997  -5.450  15.027  0.00  0.00     0.028 A 
ATOM      5  C   UNL d   1      16.053  -4.912  12.869  0.00  0.00     0.028 A 
ATOM      6  C   UNL d   1      16.586  -7.203  13.416  0.00  0.00     0.109 A 
ATOM      7  C   UNL d   1      16.095  -6.260  12.515  0.00  0.00     0.042 A 
ATOM      8  C   UNL d   1      17.038  -6.798  14.672  0.00  0.00     0.042 A 
ENDROOT
BRANCH   6   9
ATOM      9  O   UNL d   1      16.626  -8.524  13.070  0.00  0.00    -0.308 OA
BRANCH   9  10
ATOM     10  C   UNL d   1      15.560  -9.317  13.453  0.00  0.00     0.077 A 
ATOM     11  C   UNL d   1      14.396  -8.716  13.901  0.00  0.00     0.058 A 
ATOM     12  C   UNL d   1      13.322  -9.517  14.287  0.00  0.00     0.042 A 
ATOM     13  I   UNL d   1      11.576  -8.586  14.961  0.00  0.00    -0.042 I 
ATOM     14  C   UNL d   1      13.427 -10.906  14.219  0.00  0.00     0.082 A 
ATOM     15  C   UNL d   1      14.607 -11.495  13.765  0.00  0.00     0.040 A 
ATOM     16  C   UNL d   1      15.682 -10.693  13.379  0.00  0.00     0.040 A 
BRANCH  14  17
ATOM     17  O   UNL d   1      12.400 -11.724  14.587  0.00  0.00    -0.359 OA
ATOM     18  H   UNL d   1      11.890 -11.973  13.798  0.00  0.00     0.217 HD
ENDBRANCH  14  17
ENDBRANCH   9  10
ENDBRANCH   6   9
BRANCH   3  19
ATOM     19  C   UNL d   1      16.461  -3.065  14.504  0.00  0.00     0.085 C 
BRANCH  19  20
ATOM     20  CA  UNL d   1      16.305  -2.133  13.293  0.00  0.00     0.318 C 
BRANCH  20  21
ATOM     21  N   UNL d   1      17.357  -1.119  13.310  0.00  0.00     0.093 N 
ATOM     22  H1  UNL d   1      16.938  -0.192  13.363  0.00  0.00     0.314 HD
ATOM     23  H2  UNL d   1      17.872  -1.140  12.430  0.00  0.00     0.314 HD
ENDBRANCH  20  21
BRANCH  20  24
ATOM     24  C   UNL d   1      14.982  -1.387  13.312  0.00  0.00     0.174 C 
ATOM     25  OXT UNL d   1      14.858  -0.177  13.169  0.00  0.00    -0.648 OA
BRANCH  24  26
ATOM     26  O   UNL d   1      13.921  -2.221  13.471  0.00  0.00    -0.775 OA
ATOM     27  H   UNL d   1      13.320  -2.199  12.697  0.00  0.00     0.167 HD
ENDBRANCH  24  26
ENDBRANCH  20  24
ENDBRANCH  19  20
ENDBRANCH   3  19
TORSDOF 8
ENDMDL
MODEL 3
REMARK VINA RESULT:      -5.5      3.127      3.721
REMARK  8 active torsions:
REMARK  status: ('A' for Active; 'I' for Inactive)
REMARK    1  A    between atoms: O_4  and  C_14 
REMARK    2  A    between atoms: O_4  and  C_18 
REMARK    3  A    between atoms: O_5  and  C_17 
REMARK    4  A    between atoms: O_7  and  C_23 
REMARK    5  A    between atoms: N_8  and  CA_10 
REMARK    6  A    between atoms: C_9  and  CA_10 
REMARK    7  A    between atoms: C_9  and  C_11 
REMARK    8  A    between atoms: CA_10  and  C_17 
ROOT
ATOM      1  I   UNL d   1      15.172  -7.282  11.557  0.00  0.00    -0.042 I 
ATOM      2  I   UNL d   1      16.790  -9.140  17.141  0.00  0.00    -0.042 I 
ATOM      3  C   UNL d   1      17.368  -5.526  14.840  0.00  0.00    -0.053 A 
ATOM      4  C   UNL d   1      17.382  -6.489  15.837  0.00  0.00     0.028 A 
ATOM      5  C   UNL d   1      16.741  -5.753  13.626  0.00  0.00     0.028 A 
ATOM      6  C   UNL d   1      16.113  -7.956  14.395  0.00  0.00     0.109 A 
ATOM      7  C   UNL d   1      16.109  -6.976  13.402  0.00  0.00     0.042 A 
ATOM      8  C   UNL d   1      16.750  -7.712  15.612  0.00  0.00     0.042 A 
ENDROOT
BRANCH   6   9
ATOM      9  O   UNL d   1      15.494  -9.153  14.176  0.00  0.00    -0.308 OA
BRANCH   9  10
ATOM     10  C   UNL d   1      14.140  -9.232  14.448  0.00  0.00     0.077 A 
ATOM     11  C   UNL d   1      13.439 -10.365  14.073  0.00  0.00     0.058 A 
ATOM     12  C   UNL d   1      12.075 -10.443  14.348  0.00  0.00     0.042 A 
ATOM     13  I   UNL d   1      11.037 -12.163  13.771  0.00  0.00    -0.042 I 
ATOM     14  C   UNL d   1      11.432  -9.386  14.994  0.00  0.00     0.082 A 
ATOM     15  C   UNL d   1      12.154  -8.253  15.365  0.00  0.00     0.040 A 
ATOM     16  C   UNL d   1      13.519  -8.175  15.090  0.00  0.00     0.040 A 
BRANCH  14  17
ATOM     17  O   UNL d   1      10.099  -9.423  15.281  0.00  0.00    -0.359 OA
ATOM     18  H   UNL d   1       9.854 -10.324  15.553  0.00  0.00     0.217 HD
ENDBRANCH  14  17
ENDBRANCH   9  10
ENDBRANCH   6   9
BRANCH   3  19
ATOM     19  C   UNL d   1      18.052  -4.201  15.083  0.00  0.00     0.085 C 
BRANCH  19  20
ATOM     20  CA  UNL d   1      17.163  -2.997  14.735  0.00  0.00     0.318 C 
BRANCH  20  21
ATOM     21  N   UNL d   1      17.981  -1.790  14.640  0.00  0.00     0.093 N 
ATOM     22  H1  UNL d   1      17.561  -1.144  13.973  0.00  0.00     0.314 HD
ATOM     23  H2  UNL d   1      18.898  -2.023  14.259  0.00  0.00     0.314 HD
ENDBRANCH  20  21
BRANCH  20  24
ATOM     24  C   UNL d   1      16.118  -2.731  15.804  0.00  0.00     0.174 C 
ATOM     25  OXT UNL d   1      16.318  -2.106  16.838  0.00  0.00    -0.648 OA
BRANCH  24  26
ATOM     26  O   UNL d   1      14.901  -3.238  15.475  0.00  0.00    -0.775 OA
ATOM     27  H   UNL d   1      14.505  -3.746  16.215  0.00  0.00     0.167 HD
ENDBRANCH  24  26
ENDBRANCH  20  24
ENDBRANCH  19  20
ENDBRANCH   3  19
TORSDOF 8
ENDMDL
MODEL 4
REMARK VINA RESULT:      -5.5      3.943      8.475
REMARK  8 active torsions:
REMARK  status: ('A' for Active; 'I' for Inactive)
REMARK    1  A    between atoms: O_4  and  C_14 
REMARK    2  A    between atoms: O_4  and  C_18 
REMARK    3  A    between atoms: O_5  and  C_17 
REMARK    4  A    between atoms: O_7  and  C_23 
REMARK    5  A    between atoms: N_8  and  CA_10 
REMARK    6  A    between atoms: C_9  and  CA_10 
REMARK    7  A    between atoms: C_9  and  C_11 
REMARK    8  A    between atoms: CA_10  and  C_17 
ROOT
ATOM      1  I   UNL d   1      15.559  -2.109  15.791  0.00  0.00    -0.042 I 
ATOM      2  I   UNL d   1      14.046  -3.754  10.112  0.00  0.00    -0.042 I 
ATOM      3  C   UNL d   1      15.967  -5.719  13.450  0.00  0.00    -0.053 A 
ATOM      4  C   UNL d   1      15.410  -5.427  12.215  0.00  0.00     0.028 A 
ATOM      5  C   UNL d   1      16.008  -4.776  14.464  0.00  0.00     0.028 A 
ATOM      6  C   UNL d   1      14.914  -3.196  13.000  0.00  0.00     0.109 A 
ATOM      7  C   UNL d   1      15.479  -3.506  14.237  0.00  0.00     0.042 A 
ATOM      8  C   UNL d   1      14.880  -4.157  11.989  0.00  0.00     0.042 A 
ENDROOT
BRANCH   6   9
ATOM      9  O   UNL d   1      14.394  -1.953  12.777  0.00  0.00    -0.308 OA
BRANCH   9  10
ATOM     10  C   UNL d   1      15.193  -1.034  12.121  0.00  0.00     0.077 A 
ATOM     11  C   UNL d   1      14.776  -0.522  10.905  0.00  0.00     0.058 A 
ATOM     12  C   UNL d   1      15.582   0.404  10.244  0.00  0.00     0.042 A 
ATOM     13  I   UNL d   1      14.932   1.162   8.408  0.00  0.00    -0.042 I 
ATOM     14  C   UNL d   1      16.793   0.804  10.809  0.00  0.00     0.082 A 
ATOM     15  C   UNL d   1      17.197   0.278  12.036  0.00  0.00     0.040 A 
ATOM     16  C   UNL d   1      16.391  -0.648  12.697  0.00  0.00     0.040 A 
BRANCH  14  17
ATOM     17  O   UNL d   1      17.610   1.707  10.196  0.00  0.00    -0.359 OA
ATOM     18  H   UNL d   1      17.503   1.633   9.232  0.00  0.00     0.217 HD
ENDBRANCH  14  17
ENDBRANCH   9  10
ENDBRANCH   6   9
BRANCH   3  19
ATOM     19  C   UNL d   1      16.540  -7.095  13.695  0.00  0.00     0.085 C 
BRANCH  19  20
ATOM     20  CA  UNL d   1      15.918  -7.793  14.915  0.00  0.00     0.318 C 
BRANCH  20  21
ATOM     21  N   UNL d   1      16.522  -9.111  15.091  0.00  0.00     0.093 N 
ATOM     22  H1  UNL d   1      15.942  -9.817  14.639  0.00  0.00     0.314 HD
ATOM     23  H2  UNL d   1      16.535  -9.356  16.082  0.00  0.00     0.314 HD
ENDBRANCH  20  21
BRANCH  20  24
ATOM     24  C   UNL d   1      14.426  -8.016  14.746  0.00  0.00     0.174 C 
ATOM     25  OXT UNL d   1      13.922  -8.822  13.973  0.00  0.00    -0.648 OA
BRANCH  24  26
ATOM     26  O   UNL d   1      13.689  -7.240  15.583  0.00  0.00    -0.775 OA
ATOM     27  H   UNL d   1      13.283  -7.766  16.305  0.00  0.00     0.167 HD
ENDBRANCH  24  26
ENDBRANCH  20  24
ENDBRANCH  19  20
ENDBRANCH   3  19
TORSDOF 8
ENDMDL
MODEL 5
REMARK VINA RESULT:      -5.1     19.181     23.084
REMARK  8 active torsions:
REMARK  status: ('A' for Active; 'I' for Inactive)
REMARK    1  A    between atoms: O_4  and  C_14 
REMARK    2  A    between atoms: O_4  and  C_18 
REMARK    3  A    between atoms: O_5  and  C_17 
REMARK    4  A    between atoms: O_7  and  C_23 
REMARK    5  A    between atoms: N_8  and  CA_10 
REMARK    6  A    between atoms: C_9  and  CA_10 
REMARK    7  A    between atoms: C_9  and  C_11 
REMARK    8  A    between atoms: CA_10  and  C_17 
ROOT
ATOM      1  I   UNL d   1       9.732  17.844  10.391  0.00  0.00    -0.042 I 
ATOM      2  I   UNL d   1      13.432  13.597  12.741  0.00  0.00    -0.042 I 
ATOM      3  C   UNL d   1       9.990  13.538  10.126  0.00  0.00    -0.053 A 
ATOM      4  C   UNL d   1      11.075  13.180  10.910  0.00  0.00     0.028 A 
ATOM      5  C   UNL d   1       9.610  14.862   9.980  0.00  0.00     0.028 A 
ATOM      6  C   UNL d   1      11.430  15.513  11.430  0.00  0.00     0.109 A 
ATOM      7  C   UNL d   1      10.335  15.856  10.637  0.00  0.00     0.042 A 
ATOM      8  C   UNL d   1      11.800  14.175  11.567  0.00  0.00     0.042 A 
ENDROOT
BRANCH   6   9
ATOM      9  O   UNL d   1      12.140  16.487  12.072  0.00  0.00    -0.308 OA
BRANCH   9  10
ATOM     10  C   UNL d   1      13.057  17.205  11.326  0.00  0.00     0.077 A 
ATOM     11  C   UNL d   1      13.824  16.547  10.380  0.00  0.00     0.058 A 
ATOM     12  C   UNL d   1      14.748  17.273   9.629  0.00  0.00     0.042 A 
ATOM     13  I   UNL d   1      15.895  16.257   8.207  0.00  0.00    -0.042 I 
ATOM     14  C   UNL d   1      14.891  18.645   9.836  0.00  0.00     0.082 A 
ATOM     15  C   UNL d   1      14.110  19.292  10.792  0.00  0.00     0.040 A 
ATOM     16  C   UNL d   1      13.186  18.566  11.544  0.00  0.00     0.040 A 
BRANCH  14  17
ATOM     17  O   UNL d   1      15.783  19.390   9.122  0.00  0.00    -0.359 OA
ATOM     18  H   UNL d   1      16.536  18.831   8.865  0.00  0.00     0.217 HD
ENDBRANCH  14  17
ENDBRANCH   9  10
ENDBRANCH   6   9
BRANCH   3  19
ATOM     19  C   UNL d   1       9.205  12.460   9.415  0.00  0.00     0.085 C 
BRANCH  19  20
ATOM     20  CA  UNL d   1       9.539  11.047   9.919  0.00  0.00     0.318 C 
BRANCH  20  21
ATOM     21  N   UNL d   1      10.029  10.230   8.811  0.00  0.00     0.093 N 
ATOM     22  H1  UNL d   1      11.036  10.353   8.715  0.00  0.00     0.314 HD
ATOM     23  H2  UNL d   1       9.625  10.559   7.934  0.00  0.00     0.314 HD
ENDBRANCH  20  21
BRANCH  20  24
ATOM     24  C   UNL d   1       8.318  10.336  10.476  0.00  0.00     0.174 C 
ATOM     25  OXT UNL d   1       7.262  10.883  10.767  0.00  0.00    -0.648 OA
BRANCH  24  26
ATOM     26  O   UNL d   1       8.508   8.995  10.589  0.00  0.00    -0.775 OA
ATOM     27  H   UNL d   1       8.475   8.548   9.717  0.00  0.00     0.167 HD
ENDBRANCH  24  26
ENDBRANCH  20  24
ENDBRANCH  19  20
ENDBRANCH   3  19
TORSDOF 8
ENDMDL
MODEL 6
REMARK VINA RESULT:      -5.0     18.194     21.583
REMARK  8 active torsions:
REMARK  status: ('A' for Active; 'I' for Inactive)
REMARK    1  A    between atoms: O_4  and  C_14 
REMARK    2  A    between atoms: O_4  and  C_18 
REMARK    3  A    between atoms: O_5  and  C_17 
REMARK    4  A    between atoms: O_7  and  C_23 
REMARK    5  A    between atoms: N_8  and  CA_10 
REMARK    6  A    between atoms: C_9  and  CA_10 
REMARK    7  A    between atoms: C_9  and  C_11 
REMARK    8  A    between atoms: CA_10  and  C_17 
ROOT
ATOM      1  I   UNL d   1       7.963  14.119   8.458  0.00  0.00    -0.042 I 
ATOM      2  I   UNL d   1      12.329  12.869  12.535  0.00  0.00    -0.042 I 
ATOM      3  C   UNL d   1      11.303  16.304  10.119  0.00  0.00    -0.053 A 
ATOM      4  C   UNL d   1      11.911  15.434  11.010  0.00  0.00     0.028 A 
ATOM      5  C   UNL d   1      10.182  15.929   9.396  0.00  0.00     0.028 A 
ATOM      6  C   UNL d   1      10.257  13.762  10.459  0.00  0.00     0.109 A 
ATOM      7  C   UNL d   1       9.656  14.649   9.567  0.00  0.00     0.042 A 
ATOM      8  C   UNL d   1      11.384  14.154  11.181  0.00  0.00     0.042 A 
ENDROOT
BRANCH   6   9
ATOM      9  O   UNL d   1       9.741  12.508  10.628  0.00  0.00    -0.308 OA
BRANCH   9  10
ATOM     10  C   UNL d   1      10.194  11.512   9.783  0.00  0.00     0.077 A 
ATOM     11  C   UNL d   1       9.525  10.300   9.746  0.00  0.00     0.058 A 
ATOM     12  C   UNL d   1       9.983   9.296   8.893  0.00  0.00     0.042 A 
ATOM     13  I   UNL d   1       8.957   7.476   8.855  0.00  0.00    -0.042 I 
ATOM     14  C   UNL d   1      11.103   9.519   8.092  0.00  0.00     0.082 A 
ATOM     15  C   UNL d   1      11.764  10.745   8.142  0.00  0.00     0.040 A 
ATOM     16  C   UNL d   1      11.306  11.750   8.995  0.00  0.00     0.040 A 
BRANCH  14  17
ATOM     17  O   UNL d   1      11.583   8.563   7.245  0.00  0.00    -0.359 OA
ATOM     18  H   UNL d   1      10.907   7.874   7.123  0.00  0.00     0.217 HD
ENDBRANCH  14  17
ENDBRANCH   9  10
ENDBRANCH   6   9
BRANCH   3  19
ATOM     19  C   UNL d   1      11.873  17.691   9.934  0.00  0.00     0.085 C 
BRANCH  19  20
ATOM     20  CA  UNL d   1      12.191  18.389  11.265  0.00  0.00     0.318 C 
BRANCH  20  21
ATOM     21  N   UNL d   1      11.407  19.616  11.380  0.00  0.00     0.093 N 
ATOM     22  H1  UNL d   1      10.762  19.538  12.164  0.00  0.00     0.314 HD
ATOM     23  H2  UNL d   1      10.824  19.733  10.551  0.00  0.00     0.314 HD
ENDBRANCH  20  21
BRANCH  20  24
ATOM     24  C   UNL d   1      13.651  18.794  11.363  0.00  0.00     0.174 C 
ATOM     25  OXT UNL d   1      14.501  18.559  10.514  0.00  0.00    -0.648 OA
BRANCH  24  26
ATOM     26  O   UNL d   1      13.919  19.491  12.498  0.00  0.00    -0.775 OA
ATOM     27  H   UNL d   1      14.293  18.916  13.200  0.00  0.00     0.167 HD
ENDBRANCH  24  26
ENDBRANCH  20  24
ENDBRANCH  19  20
ENDBRANCH   3  19
TORSDOF 8
ENDMDL
MODEL 7
REMARK VINA RESULT:      -4.8     17.841     19.601
REMARK  8 active torsions:
REMARK  status: ('A' for Active; 'I' for Inactive)
REMARK    1  A    between atoms: O_4  and  C_14 
REMARK    2  A    between atoms: O_4  and  C_18 
REMARK    3  A    between atoms: O_5  and  C_17 
REMARK    4  A    between atoms: O_7  and  C_23 
REMARK    5  A    between atoms: N_8  and  CA_10 
REMARK    6  A    between atoms: C_9  and  CA_10 
REMARK    7  A    between atoms: C_9  and  C_11 
REMARK    8  A    between atoms: CA_10  and  C_17 
ROOT
ATOM      1  I   UNL d   1      13.463  11.238   6.665  0.00  0.00    -0.042 I 
ATOM      2  I   UNL d   1      14.158  14.155  11.980  0.00  0.00    -0.042 I 
ATOM      3  C   UNL d   1      11.023  11.775  10.192  0.00  0.00    -0.053 A 
ATOM      4  C   UNL d   1      11.778  12.557  11.052  0.00  0.00     0.028 A 
ATOM      5  C   UNL d   1      11.503  11.401   8.947  0.00  0.00     0.028 A 
ATOM      6  C   UNL d   1      13.544  12.609   9.404  0.00  0.00     0.109 A 
ATOM      7  C   UNL d   1      12.772  11.822   8.551  0.00  0.00     0.042 A 
ATOM      8  C   UNL d   1      13.047  12.977  10.655  0.00  0.00     0.042 A 
ENDROOT
BRANCH   6   9
ATOM      9  O   UNL d   1      14.788  13.020   9.016  0.00  0.00    -0.308 OA
BRANCH   9  10
ATOM     10  C   UNL d   1      15.839  12.142   9.206  0.00  0.00     0.077 A 
ATOM     11  C   UNL d   1      17.047  12.386   8.575  0.00  0.00     0.058 A 
ATOM     12  C   UNL d   1      18.106  11.499   8.766  0.00  0.00     0.042 A 
ATOM     13  I   UNL d   1      19.919  11.888   7.802  0.00  0.00    -0.042 I 
ATOM     14  C   UNL d   1      17.941  10.382   9.586  0.00  0.00     0.082 A 
ATOM     15  C   UNL d   1      16.718  10.152  10.214  0.00  0.00     0.040 A 
ATOM     16  C   UNL d   1      15.659  11.040  10.022  0.00  0.00     0.040 A 
BRANCH  14  17
ATOM     17  O   UNL d   1      18.952   9.492   9.799  0.00  0.00    -0.359 OA
ATOM     18  H   UNL d   1      19.408   9.716  10.628  0.00  0.00     0.217 HD
ENDBRANCH  14  17
ENDBRANCH   9  10
ENDBRANCH   6   9
BRANCH   3  19
ATOM     19  C   UNL d   1       9.648  11.320  10.622  0.00  0.00     0.085 C 
BRANCH  19  20
ATOM     20  CA  UNL d   1       8.615  11.385   9.487  0.00  0.00     0.318 C 
BRANCH  20  21
ATOM     21  N   UNL d   1       8.070  12.737   9.392  0.00  0.00     0.093 N 
ATOM     22  H1  UNL d   1       7.958  12.993   8.412  0.00  0.00     0.314 HD
ATOM     23  H2  UNL d   1       8.735  13.406   9.779  0.00  0.00     0.314 HD
ENDBRANCH  20  21
BRANCH  20  24
ATOM     24  C   UNL d   1       7.438  10.457   9.732  0.00  0.00     0.174 C 
ATOM     25  OXT UNL d   1       7.173   9.470   9.058  0.00  0.00    -0.648 OA
BRANCH  24  26
ATOM     26  O   UNL d   1       6.711  10.821  10.821  0.00  0.00    -0.775 OA
ATOM     27  H   UNL d   1       7.211  10.686  11.654  0.00  0.00     0.167 HD
ENDBRANCH  24  26
ENDBRANCH  20  24
ENDBRANCH  19  20
ENDBRANCH   3  19
TORSDOF 8
ENDMDL
MODEL 8
REMARK VINA RESULT:      -4.8     16.792     19.448
REMARK  8 active torsions:
REMARK  status: ('A' for Active; 'I' for Inactive)
REMARK    1  A    between atoms: O_4  and  C_14 
REMARK    2  A    between atoms: O_4  and  C_18 
REMARK    3  A    between atoms: O_5  and  C_17 
REMARK    4  A    between atoms: O_7  and  C_23 
REMARK    5  A    between atoms: N_8  and  CA_10 
REMARK    6  A    between atoms: C_9  and  CA_10 
REMARK    7  A    between atoms: C_9  and  C_11 
REMARK    8  A    between atoms: CA_10  and  C_17 
ROOT
ATOM      1  I   UNL d   1      16.240  14.746   8.508  0.00  0.00    -0.042 I 
ATOM      2  I   UNL d   1      13.225   9.598   7.220  0.00  0.00    -0.042 I 
ATOM      3  C   UNL d   1      12.256  13.264   9.296  0.00  0.00    -0.053 A 
ATOM      4  C   UNL d   1      12.208  12.003   8.724  0.00  0.00     0.028 A 
ATOM      5  C   UNL d   1      13.401  14.041   9.234  0.00  0.00     0.028 A 
ATOM      6  C   UNL d   1      14.497  12.276   8.001  0.00  0.00     0.109 A 
ATOM      7  C   UNL d   1      14.529  13.543   8.582  0.00  0.00     0.042 A 
ATOM      8  C   UNL d   1      13.336  11.506   8.072  0.00  0.00     0.042 A 
ENDROOT
BRANCH   6   9
ATOM      9  O   UNL d   1      15.602  11.788   7.362  0.00  0.00    -0.308 OA
BRANCH   9  10
ATOM     10  C   UNL d   1      16.410  10.912   8.063  0.00  0.00     0.077 A 
ATOM     11  C   UNL d   1      17.327  10.138   7.372  0.00  0.00     0.058 A 
ATOM     12  C   UNL d   1      18.142   9.255   8.079  0.00  0.00     0.042 A 
ATOM     13  I   UNL d   1      19.518   8.097   7.015  0.00  0.00    -0.042 I 
ATOM     14  C   UNL d   1      18.027   9.158   9.467  0.00  0.00     0.082 A 
ATOM     15  C   UNL d   1      17.098   9.946  10.146  0.00  0.00     0.040 A 
ATOM     16  C   UNL d   1      16.284  10.829   9.438  0.00  0.00     0.040 A 
BRANCH  14  17
ATOM     17  O   UNL d   1      18.805   8.307  10.195  0.00  0.00    -0.359 OA
ATOM     18  H   UNL d   1      18.735   8.535  11.137  0.00  0.00     0.217 HD
ENDBRANCH  14  17
ENDBRANCH   9  10
ENDBRANCH   6   9
BRANCH   3  19
ATOM     19  C   UNL d   1      11.034  13.803  10.001  0.00  0.00     0.085 C 
BRANCH  19  20
ATOM     20  CA  UNL d   1      11.050  13.535  11.514  0.00  0.00     0.318 C 
BRANCH  20  21
ATOM     21  N   UNL d   1       9.957  12.633  11.868  0.00  0.00     0.093 N 
ATOM     22  H1  UNL d   1       9.079  12.997  11.500  0.00  0.00     0.314 HD
ATOM     23  H2  UNL d   1       9.843  12.608  12.882  0.00  0.00     0.314 HD
ENDBRANCH  20  21
BRANCH  20  24
ATOM     24  C   UNL d   1      10.845  14.805  12.321  0.00  0.00     0.174 C 
ATOM     25  OXT UNL d   1      11.590  15.776  12.298  0.00  0.00    -0.648 OA
BRANCH  24  26
ATOM     26  O   UNL d   1       9.706  14.768  13.062  0.00  0.00    -0.775 OA
ATOM     27  H   UNL d   1       8.939  15.128  12.569  0.00  0.00     0.167 HD
ENDBRANCH  24  26
ENDBRANCH  20  24
ENDBRANCH  19  20
ENDBRANCH   3  19
TORSDOF 8
ENDMDL
MODEL 9
REMARK VINA RESULT:      -4.7     18.829     22.061
REMARK  8 active torsions:
REMARK  status: ('A' for Active; 'I' for Inactive)
REMARK    1  A    between atoms: O_4  and  C_14 
REMARK    2  A    between atoms: O_4  and  C_18 
REMARK    3  A    between atoms: O_5  and  C_17 
REMARK    4  A    between atoms: O_7  and  C_23 
REMARK    5  A    between atoms: N_8  and  CA_10 
REMARK    6  A    between atoms: C_9  and  CA_10 
REMARK    7  A    between atoms: C_9  and  C_11 
REMARK    8  A    between atoms: CA_10  and  C_17 
ROOT
ATOM      1  I   UNL d   1      10.224  15.755   8.317  0.00  0.00    -0.042 I 
ATOM      2  I   UNL d   1      13.602  13.489  12.868  0.00  0.00    -0.042 I 
ATOM      3  C   UNL d   1      14.203  16.506   9.831  0.00  0.00    -0.053 A 
ATOM      4  C   UNL d   1      14.365  15.640  10.900  0.00  0.00     0.028 A 
ATOM      5  C   UNL d   1      13.027  16.538   9.099  0.00  0.00     0.028 A 
ATOM      6  C   UNL d   1      12.131  14.801  10.519  0.00  0.00     0.109 A 
ATOM      7  C   UNL d   1      11.985  15.679   9.445  0.00  0.00     0.042 A 
ATOM      8  C   UNL d   1      13.321  14.782  11.246  0.00  0.00     0.042 A 
ENDROOT
BRANCH   6   9
ATOM      9  O   UNL d   1      11.109  13.960  10.859  0.00  0.00    -0.308 OA
BRANCH   9  10
ATOM     10  C   UNL d   1      11.042  12.741  10.210  0.00  0.00     0.077 A 
ATOM     11  C   UNL d   1       9.909  11.960  10.353  0.00  0.00     0.058 A 
ATOM     12  C   UNL d   1       9.841  10.731   9.698  0.00  0.00     0.042 A 
ATOM     13  I   UNL d   1       8.120   9.568   9.931  0.00  0.00    -0.042 I 
ATOM     14  C   UNL d   1      10.909  10.302   8.909  0.00  0.00     0.082 A 
ATOM     15  C   UNL d   1      12.043  11.102   8.775  0.00  0.00     0.040 A 
ATOM     16  C   UNL d   1      12.110  12.332   9.431  0.00  0.00     0.040 A 
BRANCH  14  17
ATOM     17  O   UNL d   1      10.883   9.107   8.252  0.00  0.00    -0.359 OA
ATOM     18  H   UNL d   1      11.258   9.222   7.362  0.00  0.00     0.217 HD
ENDBRANCH  14  17
ENDBRANCH   9  10
ENDBRANCH   6   9
BRANCH   3  19
ATOM     19  C   UNL d   1      15.333  17.437   9.456  0.00  0.00     0.085 C 
BRANCH  19  20
ATOM     20  CA  UNL d   1      14.842  18.820   9.001  0.00  0.00     0.318 C 
BRANCH  20  21
ATOM     21  N   UNL d   1      15.802  19.402   8.066  0.00  0.00     0.093 N 
ATOM     22  H1  UNL d   1      15.755  20.419   8.116  0.00  0.00     0.314 HD
ATOM     23  H2  UNL d   1      15.544  19.160   7.110  0.00  0.00     0.314 HD
ENDBRANCH  20  21
BRANCH  20  24
ATOM     24  C   UNL d   1      14.718  19.792  10.160  0.00  0.00     0.174 C 
ATOM     25  OXT UNL d   1      15.648  20.425  10.646  0.00  0.00    -0.648 OA
BRANCH  24  26
ATOM     26  O   UNL d   1      13.437  19.920  10.593  0.00  0.00    -0.775 OA
ATOM     27  H   UNL d   1      13.393  20.082  11.560  0.00  0.00     0.167 HD
ENDBRANCH  24  26
ENDBRANCH  20  24
ENDBRANCH  19  20
ENDBRANCH   3  19
TORSDOF 8
ENDMDL
