MODEL 1
REMARK VINA RESULT:      -5.7      0.000      0.000
REMARK  2 active torsions:
REMARK  status: ('A' for Active; 'I' for Inactive)
REMARK    1  A    between atoms: O_11  and  C_12 
REMARK    2  A    between atoms: O_11  and  C_13 
ROOT
ATOM      1  O   UNL d   1      14.800  -5.256  14.593  0.00  0.00    -0.305 OA
ENDROOT
BRANCH   1   2
ATOM      2  C   UNL d   1      14.847  -4.344  13.556  0.00  0.00     0.113 A 
ATOM      3  C   UNL d   1      15.164  -3.021  13.824  0.00  0.00     0.065 A 
ATOM      4 BR   UNL d   1      15.521  -2.532  15.641  0.00  0.00    -0.046 Br
ATOM      5  C   UNL d   1      15.210  -2.100  12.777  0.00  0.00     0.050 A 
ATOM      6 BR   UNL d   1      15.646  -0.266  13.154  0.00  0.00    -0.048 Br
ATOM      7  C   UNL d   1      14.938  -2.513  11.473  0.00  0.00     0.048 A 
ATOM      8 BR   UNL d   1      14.997  -1.241  10.029  0.00  0.00    -0.048 Br
ATOM      9  C   UNL d   1      14.620  -3.846  11.216  0.00  0.00     0.050 A 
ATOM     10 BR   UNL d   1      14.242  -4.436   9.426  0.00  0.00    -0.048 Br
ATOM     11  C   UNL d   1      14.574  -4.767  12.263  0.00  0.00     0.065 A 
ATOM     12 BR   UNL d   1      14.147  -6.613  11.991  0.00  0.00    -0.046 Br
ENDBRANCH   1   2
BRANCH   1  13
ATOM     13  C   UNL d   1      15.552  -6.390  14.471  0.00  0.00     0.113 A 
ATOM     14  C   UNL d   1      14.951  -7.643  14.592  0.00  0.00     0.065 A 
ATOM     15 BR   UNL d   1      13.066  -7.688  14.930  0.00  0.00    -0.046 Br
ATOM     16  C   UNL d   1      15.719  -8.800  14.470  0.00  0.00     0.050 A 
ATOM     17 BR   UNL d   1      14.871 -10.517  14.644  0.00  0.00    -0.048 Br
ATOM     18  C   UNL d   1      17.089  -8.705  14.227  0.00  0.00     0.048 A 
ATOM     19 BR   UNL d   1      18.150 -10.303  14.061  0.00  0.00    -0.048 Br
ATOM     20  C   UNL d   1      17.690  -7.453  14.106  0.00  0.00     0.050 A 
ATOM     21 BR   UNL d   1      19.578  -7.300  13.770  0.00  0.00    -0.048 Br
ATOM     22  C   UNL d   1      16.923  -6.296  14.228  0.00  0.00     0.065 A 
ATOM     23 BR   UNL d   1      17.674  -4.541  14.074  0.00  0.00    -0.046 Br
ENDBRANCH   1  13
TORSDOF 2
ENDMDL
MODEL 2
REMARK VINA RESULT:      -5.7      0.013      6.557
REMARK  2 active torsions:
REMARK  status: ('A' for Active; 'I' for Inactive)
REMARK    1  A    between atoms: O_11  and  C_12 
REMARK    2  A    between atoms: O_11  and  C_13 
ROOT
ATOM      1  O   UNL d   1      14.795  -5.263  14.592  0.00  0.00    -0.305 OA
ENDROOT
BRANCH   1   2
ATOM      2  C   UNL d   1      15.555  -6.411  14.468  0.00  0.00     0.113 A 
ATOM      3  C   UNL d   1      14.945  -7.651  14.593  0.00  0.00     0.065 A 
ATOM      4 BR   UNL d   1      13.061  -7.695  14.935  0.00  0.00    -0.046 Br
ATOM      5  C   UNL d   1      15.713  -8.809  14.471  0.00  0.00     0.050 A 
ATOM      6 BR   UNL d   1      14.864 -10.525  14.649  0.00  0.00    -0.048 Br
ATOM      7  C   UNL d   1      17.082  -8.715  14.225  0.00  0.00     0.048 A 
ATOM      8 BR   UNL d   1      18.142 -10.314  14.060  0.00  0.00    -0.048 Br
ATOM      9  C   UNL d   1      17.684  -7.464  14.102  0.00  0.00     0.050 A 
ATOM     10 BR   UNL d   1      19.571  -7.312  13.762  0.00  0.00    -0.048 Br
ATOM     11  C   UNL d   1      16.917  -6.305  14.224  0.00  0.00     0.065 A 
ATOM     12 BR   UNL d   1      17.668  -4.551  14.066  0.00  0.00    -0.046 Br
ENDBRANCH   1   2
BRANCH   1  13
ATOM     13  C   UNL d   1      14.843  -4.363  13.566  0.00  0.00     0.113 A 
ATOM     14  C   UNL d   1      15.160  -3.029  13.822  0.00  0.00     0.065 A 
ATOM     15 BR   UNL d   1      15.518  -2.540  15.639  0.00  0.00    -0.046 Br
ATOM     16  C   UNL d   1      15.206  -2.109  12.775  0.00  0.00     0.050 A 
ATOM     17 BR   UNL d   1      15.643  -0.275  13.151  0.00  0.00    -0.048 Br
ATOM     18  C   UNL d   1      14.933  -2.522  11.471  0.00  0.00     0.048 A 
ATOM     19 BR   UNL d   1      14.993  -1.251  10.026  0.00  0.00    -0.048 Br
ATOM     20  C   UNL d   1      14.615  -3.855  11.215  0.00  0.00     0.050 A 
ATOM     21 BR   UNL d   1      14.236  -4.446   9.424  0.00  0.00    -0.048 Br
ATOM     22  C   UNL d   1      14.569  -4.776  12.261  0.00  0.00     0.065 A 
ATOM     23 BR   UNL d   1      14.142  -6.622  11.991  0.00  0.00    -0.046 Br
ENDBRANCH   1  13
TORSDOF 2
ENDMDL
MODEL 3
REMARK VINA RESULT:      -5.7      0.010      6.295
REMARK  2 active torsions:
REMARK  status: ('A' for Active; 'I' for Inactive)
REMARK    1  A    between atoms: O_11  and  C_12 
REMARK    2  A    between atoms: O_11  and  C_13 
ROOT
ATOM      1  O   UNL d   1      14.799  -5.258  14.592  0.00  0.00    -0.305 OA
ENDROOT
BRANCH   1   2
ATOM      2  C   UNL d   1      15.560  -6.405  14.471  0.00  0.00     0.113 A 
ATOM      3  C   UNL d   1      16.921  -6.298  14.223  0.00  0.00     0.065 A 
ATOM      4 BR   UNL d   1      17.670  -4.542  14.060  0.00  0.00    -0.046 Br
ATOM      5  C   UNL d   1      17.689  -7.456  14.099  0.00  0.00     0.050 A 
ATOM      6 BR   UNL d   1      19.574  -7.302  13.751  0.00  0.00    -0.048 Br
ATOM      7  C   UNL d   1      17.089  -8.708  14.224  0.00  0.00     0.048 A 
ATOM      8 BR   UNL d   1      18.149 -10.305  14.050  0.00  0.00    -0.048 Br
ATOM      9  C   UNL d   1      15.720  -8.803  14.474  0.00  0.00     0.050 A 
ATOM     10 BR   UNL d   1      14.872 -10.520  14.650  0.00  0.00    -0.048 Br
ATOM     11  C   UNL d   1      14.951  -7.645  14.598  0.00  0.00     0.065 A 
ATOM     12 BR   UNL d   1      13.068  -7.692  14.941  0.00  0.00    -0.046 Br
ENDBRANCH   1   2
BRANCH   1  13
ATOM     13  C   UNL d   1      14.846  -4.359  13.566  0.00  0.00     0.113 A 
ATOM     14  C   UNL d   1      15.163  -3.024  13.820  0.00  0.00     0.065 A 
ATOM     15 BR   UNL d   1      15.520  -2.534  15.637  0.00  0.00    -0.046 Br
ATOM     16  C   UNL d   1      15.209  -2.106  12.772  0.00  0.00     0.050 A 
ATOM     17 BR   UNL d   1      15.646  -0.271  13.146  0.00  0.00    -0.048 Br
ATOM     18  C   UNL d   1      14.936  -2.521  11.468  0.00  0.00     0.048 A 
ATOM     19 BR   UNL d   1      14.996  -1.252  10.022  0.00  0.00    -0.048 Br
ATOM     20  C   UNL d   1      14.618  -3.854  11.214  0.00  0.00     0.050 A 
ATOM     21 BR   UNL d   1      14.240  -4.447   9.424  0.00  0.00    -0.048 Br
ATOM     22  C   UNL d   1      14.572  -4.773  12.261  0.00  0.00     0.065 A 
ATOM     23 BR   UNL d   1      14.145  -6.620  11.993  0.00  0.00    -0.046 Br
ENDBRANCH   1  13
TORSDOF 2
ENDMDL
MODEL 4
REMARK VINA RESULT:      -5.7      0.009      2.584
REMARK  2 active torsions:
REMARK  status: ('A' for Active; 'I' for Inactive)
REMARK    1  A    between atoms: O_11  and  C_12 
REMARK    2  A    between atoms: O_11  and  C_13 
ROOT
ATOM      1  O   UNL d   1      14.798  -5.251  14.599  0.00  0.00    -0.305 OA
ENDROOT
BRANCH   1   2
ATOM      2  C   UNL d   1      14.846  -4.340  13.560  0.00  0.00     0.113 A 
ATOM      3  C   UNL d   1      15.168  -3.018  13.827  0.00  0.00     0.065 A 
ATOM      4 BR   UNL d   1      15.531  -2.529  15.643  0.00  0.00    -0.046 Br
ATOM      5  C   UNL d   1      15.214  -2.098  12.779  0.00  0.00     0.050 A 
ATOM      6 BR   UNL d   1      15.658  -0.265  13.153  0.00  0.00    -0.048 Br
ATOM      7  C   UNL d   1      14.937  -2.511  11.476  0.00  0.00     0.048 A 
ATOM      8 BR   UNL d   1      14.998  -1.241  10.030  0.00  0.00    -0.048 Br
ATOM      9  C   UNL d   1      14.614  -3.843  11.221  0.00  0.00     0.050 A 
ATOM     10 BR   UNL d   1      14.229  -4.433   9.432  0.00  0.00    -0.048 Br
ATOM     11  C   UNL d   1      14.568  -4.763  12.269  0.00  0.00     0.065 A 
ATOM     12 BR   UNL d   1      14.134  -6.608  12.000  0.00  0.00    -0.046 Br
ENDBRANCH   1   2
BRANCH   1  13
ATOM     13  C   UNL d   1      15.551  -6.384  14.479  0.00  0.00     0.113 A 
ATOM     14  C   UNL d   1      16.921  -6.290  14.233  0.00  0.00     0.065 A 
ATOM     15 BR   UNL d   1      17.670  -4.534  14.078  0.00  0.00    -0.046 Br
ATOM     16  C   UNL d   1      17.689  -7.447  14.108  0.00  0.00     0.050 A 
ATOM     17 BR   UNL d   1      19.575  -7.293  13.767  0.00  0.00    -0.048 Br
ATOM     18  C   UNL d   1      17.087  -8.699  14.228  0.00  0.00     0.048 A 
ATOM     19 BR   UNL d   1      18.147 -10.297  14.052  0.00  0.00    -0.048 Br
ATOM     20  C   UNL d   1      15.718  -8.795  14.473  0.00  0.00     0.050 A 
ATOM     21 BR   UNL d   1      14.869 -10.512  14.642  0.00  0.00    -0.048 Br
ATOM     22  C   UNL d   1      14.949  -7.638  14.598  0.00  0.00     0.065 A 
ATOM     23 BR   UNL d   1      13.065  -7.685  14.935  0.00  0.00    -0.046 Br
ENDBRANCH   1  13
TORSDOF 2
ENDMDL
MODEL 5
REMARK VINA RESULT:      -5.6      0.059      6.293
REMARK  2 active torsions:
REMARK  status: ('A' for Active; 'I' for Inactive)
REMARK    1  A    between atoms: O_11  and  C_12 
REMARK    2  A    between atoms: O_11  and  C_13 
ROOT
ATOM      1  O   UNL d   1      14.812  -5.212  14.614  0.00  0.00    -0.305 OA
ENDROOT
BRANCH   1   2
ATOM      2  C   UNL d   1      15.580  -6.356  14.500  0.00  0.00     0.113 A 
ATOM      3  C   UNL d   1      14.975  -7.598  14.621  0.00  0.00     0.065 A 
ATOM      4 BR   UNL d   1      13.088  -7.652  14.945  0.00  0.00    -0.046 Br
ATOM      5  C   UNL d   1      15.750  -8.753  14.507  0.00  0.00     0.050 A 
ATOM      6 BR   UNL d   1      14.908 -10.473  14.679  0.00  0.00    -0.048 Br
ATOM      7  C   UNL d   1      17.121  -8.652  14.274  0.00  0.00     0.048 A 
ATOM      8 BR   UNL d   1      18.191 -10.245  14.120  0.00  0.00    -0.048 Br
ATOM      9  C   UNL d   1      17.717  -7.397  14.154  0.00  0.00     0.050 A 
ATOM     10 BR   UNL d   1      19.606  -7.236  13.832  0.00  0.00    -0.048 Br
ATOM     11  C   UNL d   1      16.943  -6.242  14.268  0.00  0.00     0.065 A 
ATOM     12 BR   UNL d   1      17.687  -4.485  14.114  0.00  0.00    -0.046 Br
ENDBRANCH   1   2
BRANCH   1  13
ATOM     13  C   UNL d   1      14.858  -4.316  13.584  0.00  0.00     0.113 A 
ATOM     14  C   UNL d   1      14.575  -4.733  12.283  0.00  0.00     0.065 A 
ATOM     15 BR   UNL d   1      14.131  -6.578  12.025  0.00  0.00    -0.046 Br
ATOM     16  C   UNL d   1      14.625  -3.819  11.231  0.00  0.00     0.050 A 
ATOM     17 BR   UNL d   1      14.234  -4.416   9.445  0.00  0.00    -0.048 Br
ATOM     18  C   UNL d   1      14.957  -2.488  11.479  0.00  0.00     0.048 A 
ATOM     19 BR   UNL d   1      15.028  -1.227  10.026  0.00  0.00    -0.048 Br
ATOM     20  C   UNL d   1      15.240  -2.070  12.779  0.00  0.00     0.050 A 
ATOM     21 BR   UNL d   1      15.700  -0.239  13.143  0.00  0.00    -0.048 Br
ATOM     22  C   UNL d   1      15.191  -2.984  13.831  0.00  0.00     0.065 A 
ATOM     23 BR   UNL d   1      15.565  -2.489  15.643  0.00  0.00    -0.046 Br
ENDBRANCH   1  13
TORSDOF 2
ENDMDL
MODEL 6
REMARK VINA RESULT:      -5.6      0.023      2.584
REMARK  2 active torsions:
REMARK  status: ('A' for Active; 'I' for Inactive)
REMARK    1  A    between atoms: O_11  and  C_12 
REMARK    2  A    between atoms: O_11  and  C_13 
ROOT
ATOM      1  O   UNL d   1      14.796  -5.270  14.588  0.00  0.00    -0.305 OA
ENDROOT
BRANCH   1   2
ATOM      2  C   UNL d   1      14.838  -4.358  13.550  0.00  0.00     0.113 A 
ATOM      3  C   UNL d   1      14.565  -4.782  12.258  0.00  0.00     0.065 A 
ATOM      4 BR   UNL d   1      14.140  -6.630  11.987  0.00  0.00    -0.046 Br
ATOM      5  C   UNL d   1      14.610  -3.861  11.210  0.00  0.00     0.050 A 
ATOM      6 BR   UNL d   1      14.233  -4.453   9.420  0.00  0.00    -0.048 Br
ATOM      7  C   UNL d   1      14.928  -2.528  11.467  0.00  0.00     0.048 A 
ATOM      8 BR   UNL d   1      14.994  -1.259  10.020  0.00  0.00    -0.048 Br
ATOM      9  C   UNL d   1      15.201  -2.115  12.770  0.00  0.00     0.050 A 
ATOM     10 BR   UNL d   1      15.642  -0.281  13.145  0.00  0.00    -0.048 Br
ATOM     11  C   UNL d   1      15.157  -3.035  13.818  0.00  0.00     0.065 A 
ATOM     12 BR   UNL d   1      15.518  -2.546  15.633  0.00  0.00    -0.046 Br
ENDBRANCH   1   2
BRANCH   1  13
ATOM     13  C   UNL d   1      15.546  -6.405  14.461  0.00  0.00     0.113 A 
ATOM     14  C   UNL d   1      14.944  -7.658  14.587  0.00  0.00     0.065 A 
ATOM     15 BR   UNL d   1      13.061  -7.700  14.937  0.00  0.00    -0.046 Br
ATOM     16  C   UNL d   1      15.710  -8.816  14.460  0.00  0.00     0.050 A 
ATOM     17 BR   UNL d   1      14.861 -10.531  14.640  0.00  0.00    -0.048 Br
ATOM     18  C   UNL d   1      17.079  -8.722  14.207  0.00  0.00     0.048 A 
ATOM     19 BR   UNL d   1      18.137 -10.322  14.035  0.00  0.00    -0.048 Br
ATOM     20  C   UNL d   1      17.681  -7.471  14.082  0.00  0.00     0.050 A 
ATOM     21 BR   UNL d   1      19.566  -7.320  13.734  0.00  0.00    -0.048 Br
ATOM     22  C   UNL d   1      16.915  -6.313  14.209  0.00  0.00     0.065 A 
ATOM     23 BR   UNL d   1      17.667  -4.559  14.049  0.00  0.00    -0.046 Br
ENDBRANCH   1  13
TORSDOF 2
ENDMDL
MODEL 7
REMARK VINA RESULT:      -5.6      0.010      3.655
REMARK  2 active torsions:
REMARK  status: ('A' for Active; 'I' for Inactive)
REMARK    1  A    between atoms: O_11  and  C_12 
REMARK    2  A    between atoms: O_11  and  C_13 
ROOT
ATOM      1  O   UNL d   1      14.801  -5.254  14.594  0.00  0.00    -0.305 OA
ENDROOT
BRANCH   1   2
ATOM      2  C   UNL d   1      14.845  -4.343  13.556  0.00  0.00     0.113 A 
ATOM      3  C   UNL d   1      14.571  -4.768  12.264  0.00  0.00     0.065 A 
ATOM      4 BR   UNL d   1      14.145  -6.615  11.995  0.00  0.00    -0.046 Br
ATOM      5  C   UNL d   1      14.618  -3.848  11.215  0.00  0.00     0.050 A 
ATOM      6 BR   UNL d   1      14.242  -4.441   9.425  0.00  0.00    -0.048 Br
ATOM      7  C   UNL d   1      14.937  -2.515  11.471  0.00  0.00     0.048 A 
ATOM      8 BR   UNL d   1      15.004  -1.247  10.023  0.00  0.00    -0.048 Br
ATOM      9  C   UNL d   1      15.210  -2.101  12.774  0.00  0.00     0.050 A 
ATOM     10 BR   UNL d   1      15.652  -0.267  13.147  0.00  0.00    -0.048 Br
ATOM     11  C   UNL d   1      15.164  -3.020  13.823  0.00  0.00     0.065 A 
ATOM     12 BR   UNL d   1      15.525  -2.529  15.637  0.00  0.00    -0.046 Br
ENDBRANCH   1   2
BRANCH   1  13
ATOM     13  C   UNL d   1      15.555  -6.387  14.472  0.00  0.00     0.113 A 
ATOM     14  C   UNL d   1      16.924  -6.291  14.221  0.00  0.00     0.065 A 
ATOM     15 BR   UNL d   1      17.670  -4.534  14.063  0.00  0.00    -0.046 Br
ATOM     16  C   UNL d   1      17.692  -7.447  14.094  0.00  0.00     0.050 A 
ATOM     17 BR   UNL d   1      19.577  -7.292  13.745  0.00  0.00    -0.048 Br
ATOM     18  C   UNL d   1      17.093  -8.700  14.216  0.00  0.00     0.048 A 
ATOM     19 BR   UNL d   1      18.154 -10.297  14.037  0.00  0.00    -0.048 Br
ATOM     20  C   UNL d   1      15.724  -8.797  14.466  0.00  0.00     0.050 A 
ATOM     21 BR   UNL d   1      14.878 -10.515  14.639  0.00  0.00    -0.048 Br
ATOM     22  C   UNL d   1      14.955  -7.641  14.593  0.00  0.00     0.065 A 
ATOM     23 BR   UNL d   1      13.072  -7.690  14.938  0.00  0.00    -0.046 Br
ENDBRANCH   1  13
TORSDOF 2
ENDMDL
MODEL 8
REMARK VINA RESULT:      -5.6      0.016      6.020
REMARK  2 active torsions:
REMARK  status: ('A' for Active; 'I' for Inactive)
REMARK    1  A    between atoms: O_11  and  C_12 
REMARK    2  A    between atoms: O_11  and  C_13 
ROOT
ATOM      1  O   UNL d   1      14.800  -5.262  14.592  0.00  0.00    -0.305 OA
ENDROOT
BRANCH   1   2
ATOM      2  C   UNL d   1      15.563  -6.407  14.469  0.00  0.00     0.113 A 
ATOM      3  C   UNL d   1      16.923  -6.297  14.217  0.00  0.00     0.065 A 
ATOM      4 BR   UNL d   1      17.668  -4.540  14.052  0.00  0.00    -0.046 Br
ATOM      5  C   UNL d   1      17.693  -7.453  14.089  0.00  0.00     0.050 A 
ATOM      6 BR   UNL d   1      19.577  -7.296  13.737  0.00  0.00    -0.048 Br
ATOM      7  C   UNL d   1      17.095  -8.707  14.216  0.00  0.00     0.048 A 
ATOM      8 BR   UNL d   1      18.157 -10.302  14.037  0.00  0.00    -0.048 Br
ATOM      9  C   UNL d   1      15.727  -8.804  14.469  0.00  0.00     0.050 A 
ATOM     10 BR   UNL d   1      14.883 -10.523  14.647  0.00  0.00    -0.048 Br
ATOM     11  C   UNL d   1      14.956  -7.648  14.596  0.00  0.00     0.065 A 
ATOM     12 BR   UNL d   1      13.075  -7.699  14.944  0.00  0.00    -0.046 Br
ENDBRANCH   1   2
BRANCH   1  13
ATOM     13  C   UNL d   1      14.842  -4.361  13.566  0.00  0.00     0.113 A 
ATOM     14  C   UNL d   1      14.574  -4.777  12.261  0.00  0.00     0.065 A 
ATOM     15 BR   UNL d   1      14.153  -6.626  11.993  0.00  0.00    -0.046 Br
ATOM     16  C   UNL d   1      14.620  -3.858  11.213  0.00  0.00     0.050 A 
ATOM     17 BR   UNL d   1      14.249  -4.452   9.423  0.00  0.00    -0.048 Br
ATOM     18  C   UNL d   1      14.935  -2.523  11.469  0.00  0.00     0.048 A 
ATOM     19 BR   UNL d   1      15.001  -1.256  10.021  0.00  0.00    -0.048 Br
ATOM     20  C   UNL d   1      15.203  -2.108  12.772  0.00  0.00     0.050 A 
ATOM     21 BR   UNL d   1      15.639  -0.273  13.146  0.00  0.00    -0.048 Br
ATOM     22  C   UNL d   1      15.158  -3.026  13.821  0.00  0.00     0.065 A 
ATOM     23 BR   UNL d   1      15.513  -2.534  15.637  0.00  0.00    -0.046 Br
ENDBRANCH   1  13
TORSDOF 2
ENDMDL
MODEL 9
REMARK VINA RESULT:      -5.0     23.485     26.615
REMARK  2 active torsions:
REMARK  status: ('A' for Active; 'I' for Inactive)
REMARK    1  A    between atoms: O_11  and  C_12 
REMARK    2  A    between atoms: O_11  and  C_13 
ROOT
ATOM      1  O   UNL d   1      -0.880  13.324  18.782  0.00  0.00    -0.305 OA
ENDROOT
BRANCH   1   2
ATOM      2  C   UNL d   1      -0.854  12.280  17.876  0.00  0.00     0.113 A 
ATOM      3  C   UNL d   1      -1.308  12.489  16.582  0.00  0.00     0.065 A 
ATOM      4 BR   UNL d   1      -1.952  14.233  16.125  0.00  0.00    -0.046 Br
ATOM      5  C   UNL d   1      -1.284  11.434  15.669  0.00  0.00     0.050 A 
ATOM      6 BR   UNL d   1      -1.917  11.726  13.877  0.00  0.00    -0.048 Br
ATOM      7  C   UNL d   1      -0.807  10.184  16.060  0.00  0.00     0.048 A 
ATOM      8 BR   UNL d   1      -0.777   8.728  14.800  0.00  0.00    -0.048 Br
ATOM      9  C   UNL d   1      -0.354   9.987  17.364  0.00  0.00     0.050 A 
ATOM     10 BR   UNL d   1       0.309   8.270  17.923  0.00  0.00    -0.048 Br
ATOM     11  C   UNL d   1      -0.378  11.041  18.278  0.00  0.00     0.065 A 
ATOM     12 BR   UNL d   1       0.228  10.850  20.084  0.00  0.00    -0.046 Br
ENDBRANCH   1   2
BRANCH   1  13
ATOM     13  C   UNL d   1      -2.075  13.953  18.985  0.00  0.00     0.113 A 
ATOM     14  C   UNL d   1      -3.218  13.207  19.273  0.00  0.00     0.065 A 
ATOM     15 BR   UNL d   1      -3.027  11.303  19.367  0.00  0.00    -0.046 Br
ATOM     16  C   UNL d   1      -4.438  13.850  19.477  0.00  0.00     0.050 A 
ATOM     17 BR   UNL d   1      -6.001  12.801  19.870  0.00  0.00    -0.048 Br
ATOM     18  C   UNL d   1      -4.517  15.240  19.394  0.00  0.00     0.048 A 
ATOM     19 BR   UNL d   1      -6.203  16.127  19.673  0.00  0.00    -0.048 Br
ATOM     20  C   UNL d   1      -3.375  15.986  19.106  0.00  0.00     0.050 A 
ATOM     21 BR   UNL d   1      -3.462  17.904  18.986  0.00  0.00    -0.048 Br
ATOM     22  C   UNL d   1      -2.155  15.344  18.901  0.00  0.00     0.065 A 
ATOM     23 BR   UNL d   1      -0.543  16.298  18.503  0.00  0.00    -0.046 Br
ENDBRANCH   1  13
TORSDOF 2
ENDMDL
