MODEL 1
REMARK VINA RESULT:      -4.9      0.000      0.000
REMARK  3 active torsions:
REMARK  status: ('A' for Active; 'I' for Inactive)
REMARK    1  A    between atoms: C_11  and  C_12 
REMARK    2  A    between atoms: C_11  and  C_13 
REMARK    3  A    between atoms: C_12  and  C_14 
ROOT
ATOM      1  C   UNL d   1      -1.306  14.919  19.202  0.00  0.00     0.045 C 
ENDROOT
BRANCH   1   2
ATOM      2  C   UNL d   1      -0.585  14.369  17.961  0.00  0.00     0.045 C 
BRANCH   2   3
ATOM      3  C   UNL d   1      -0.782  12.886  17.764  0.00  0.00    -0.020 A 
ATOM      4  C   UNL d   1      -1.565  12.428  16.710  0.00  0.00     0.037 A 
ATOM      5 BR   UNL d   1      -2.364  13.725  15.544  0.00  0.00    -0.049 Br
ATOM      6  C   UNL d   1      -1.748  11.058  16.528  0.00  0.00     0.047 A 
ATOM      7 BR   UNL d   1      -2.837  10.434  15.070  0.00  0.00    -0.048 Br
ATOM      8  C   UNL d   1      -1.148  10.151  17.402  0.00  0.00     0.048 A 
ATOM      9 BR   UNL d   1      -1.401   8.260  17.151  0.00  0.00    -0.048 Br
ATOM     10  C   UNL d   1      -0.363  10.617  18.458  0.00  0.00     0.047 A 
ATOM     11 BR   UNL d   1       0.475   9.380  19.671  0.00  0.00    -0.048 Br
ATOM     12  C   UNL d   1      -0.181  11.988  18.639  0.00  0.00     0.037 A 
ATOM     13 BR   UNL d   1       0.884  12.689  20.072  0.00  0.00    -0.049 Br
ENDBRANCH   2   3
ENDBRANCH   1   2
BRANCH   1  14
ATOM     14  C   UNL d   1      -2.679  15.456  18.915  0.00  0.00    -0.020 A 
ATOM     15  C   UNL d   1      -2.830  16.745  18.403  0.00  0.00     0.037 A 
ATOM     16 BR   UNL d   1      -1.247  17.780  18.088  0.00  0.00    -0.049 Br
ATOM     17  C   UNL d   1      -4.105  17.245  18.138  0.00  0.00     0.047 A 
ATOM     18 BR   UNL d   1      -4.296  19.026  17.437  0.00  0.00    -0.048 Br
ATOM     19  C   UNL d   1      -5.229  16.457  18.385  0.00  0.00     0.048 A 
ATOM     20 BR   UNL d   1      -6.989  17.147  18.018  0.00  0.00    -0.048 Br
ATOM     21  C   UNL d   1      -5.078  15.168  18.897  0.00  0.00     0.047 A 
ATOM     22 BR   UNL d   1      -6.616  14.065  19.239  0.00  0.00    -0.048 Br
ATOM     23  C   UNL d   1      -3.802  14.668  19.162  0.00  0.00     0.037 A 
ATOM     24 BR   UNL d   1      -3.527  12.905  19.867  0.00  0.00    -0.049 Br
ENDBRANCH   1  14
TORSDOF 3
ENDMDL
MODEL 2
REMARK VINA RESULT:      -4.9      0.058      2.534
REMARK  3 active torsions:
REMARK  status: ('A' for Active; 'I' for Inactive)
REMARK    1  A    between atoms: C_11  and  C_12 
REMARK    2  A    between atoms: C_11  and  C_13 
REMARK    3  A    between atoms: C_12  and  C_14 
ROOT
ATOM      1  C   UNL d   1      -1.344  14.919  19.222  0.00  0.00     0.045 C 
ENDROOT
BRANCH   1   2
ATOM      2  C   UNL d   1      -0.616  14.360  17.989  0.00  0.00     0.045 C 
BRANCH   2   3
ATOM      3  C   UNL d   1      -0.830  12.880  17.788  0.00  0.00    -0.020 A 
ATOM      4  C   UNL d   1      -0.223  11.973  18.651  0.00  0.00     0.037 A 
ATOM      5 BR   UNL d   1       0.866  12.661  20.072  0.00  0.00    -0.049 Br
ATOM      6  C   UNL d   1      -0.419  10.605  18.465  0.00  0.00     0.047 A 
ATOM      7 BR   UNL d   1       0.428   9.357  19.660  0.00  0.00    -0.048 Br
ATOM      8  C   UNL d   1      -1.219  10.150  17.417  0.00  0.00     0.048 A 
ATOM      9 BR   UNL d   1      -1.488   8.262  17.160  0.00  0.00    -0.048 Br
ATOM     10  C   UNL d   1      -1.824  11.065  16.554  0.00  0.00     0.047 A 
ATOM     11 BR   UNL d   1      -2.934  10.456  15.106  0.00  0.00    -0.048 Br
ATOM     12  C   UNL d   1      -1.628  12.434  16.741  0.00  0.00     0.037 A 
ATOM     13 BR   UNL d   1      -2.431  13.741  15.590  0.00  0.00    -0.049 Br
ENDBRANCH   2   3
ENDBRANCH   1   2
BRANCH   1  14
ATOM     14  C   UNL d   1      -2.710  15.466  18.922  0.00  0.00    -0.020 A 
ATOM     15  C   UNL d   1      -2.847  16.751  18.398  0.00  0.00     0.037 A 
ATOM     16 BR   UNL d   1      -1.253  17.769  18.084  0.00  0.00    -0.049 Br
ATOM     17  C   UNL d   1      -4.116  17.260  18.121  0.00  0.00     0.047 A 
ATOM     18 BR   UNL d   1      -4.287  19.037  17.403  0.00  0.00    -0.048 Br
ATOM     19  C   UNL d   1      -5.248  16.484  18.366  0.00  0.00     0.048 A 
ATOM     20 BR   UNL d   1      -7.000  17.186  17.983  0.00  0.00    -0.048 Br
ATOM     21  C   UNL d   1      -5.112  15.198  18.891  0.00  0.00     0.047 A 
ATOM     22 BR   UNL d   1      -6.662  14.111  19.233  0.00  0.00    -0.048 Br
ATOM     23  C   UNL d   1      -3.842  14.689  19.168  0.00  0.00     0.037 A 
ATOM     24 BR   UNL d   1      -3.587  12.930  19.890  0.00  0.00    -0.049 Br
ENDBRANCH   1  14
TORSDOF 3
ENDMDL
MODEL 3
REMARK VINA RESULT:      -4.9     24.231     27.700
REMARK  3 active torsions:
REMARK  status: ('A' for Active; 'I' for Inactive)
REMARK    1  A    between atoms: C_11  and  C_12 
REMARK    2  A    between atoms: C_11  and  C_13 
REMARK    3  A    between atoms: C_12  and  C_14 
ROOT
ATOM      1  C   UNL d   1      15.645  -6.574  12.875  0.00  0.00     0.045 C 
ENDROOT
BRANCH   1   2
ATOM      2  C   UNL d   1      14.486  -5.584  13.078  0.00  0.00     0.045 C 
BRANCH   2   3
ATOM      3  C   UNL d   1      14.668  -4.287  12.328  0.00  0.00    -0.020 A 
ATOM      4  C   UNL d   1      14.502  -4.260  10.948  0.00  0.00     0.037 A 
ATOM      5 BR   UNL d   1      14.042  -5.895  10.056  0.00  0.00    -0.049 Br
ATOM      6  C   UNL d   1      14.672  -3.062  10.255  0.00  0.00     0.047 A 
ATOM      7 BR   UNL d   1      14.445  -3.034   8.344  0.00  0.00    -0.048 Br
ATOM      8  C   UNL d   1      15.007  -1.897  10.945  0.00  0.00     0.048 A 
ATOM      9 BR   UNL d   1      15.241  -0.244   9.988  0.00  0.00    -0.048 Br
ATOM     10  C   UNL d   1      15.173  -1.932  12.330  0.00  0.00     0.047 A 
ATOM     11 BR   UNL d   1      15.632  -0.334  13.299  0.00  0.00    -0.048 Br
ATOM     12  C   UNL d   1      15.003  -3.130  13.023  0.00  0.00     0.037 A 
ATOM     13 BR   UNL d   1      15.217  -3.243  14.925  0.00  0.00    -0.049 Br
ENDBRANCH   2   3
ENDBRANCH   1   2
BRANCH   1  14
ATOM     14  C   UNL d   1      15.659  -7.701  13.867  0.00  0.00    -0.020 A 
ATOM     15  C   UNL d   1      16.528  -7.660  14.957  0.00  0.00     0.037 A 
ATOM     16 BR   UNL d   1      17.680  -6.137  15.132  0.00  0.00    -0.049 Br
ATOM     17  C   UNL d   1      16.542  -8.708  15.877  0.00  0.00     0.047 A 
ATOM     18 BR   UNL d   1      17.751  -8.639  17.372  0.00  0.00    -0.048 Br
ATOM     19  C   UNL d   1      15.687  -9.797  15.708  0.00  0.00     0.048 A 
ATOM     20 BR   UNL d   1      15.706 -11.243  16.979  0.00  0.00    -0.048 Br
ATOM     21  C   UNL d   1      14.817  -9.838  14.618  0.00  0.00     0.047 A 
ATOM     22 BR   UNL d   1      13.628 -11.330  14.371  0.00  0.00    -0.048 Br
ATOM     23  C   UNL d   1      14.804  -8.789  13.698  0.00  0.00     0.037 A 
ATOM     24 BR   UNL d   1      13.633  -8.786  12.178  0.00  0.00    -0.049 Br
ENDBRANCH   1  14
TORSDOF 3
ENDMDL
MODEL 4
REMARK VINA RESULT:      -4.9     24.192     27.130
REMARK  3 active torsions:
REMARK  status: ('A' for Active; 'I' for Inactive)
REMARK    1  A    between atoms: C_11  and  C_12 
REMARK    2  A    between atoms: C_11  and  C_13 
REMARK    3  A    between atoms: C_12  and  C_14 
ROOT
ATOM      1  C   UNL d   1      14.557  -5.487  13.178  0.00  0.00     0.045 C 
ENDROOT
BRANCH   1   2
ATOM      2  C   UNL d   1      15.689  -6.499  12.934  0.00  0.00     0.045 C 
BRANCH   2   3
ATOM      3  C   UNL d   1      15.694  -7.641  13.921  0.00  0.00    -0.020 A 
ATOM      4  C   UNL d   1      14.822  -8.710  13.742  0.00  0.00     0.037 A 
ATOM      5 BR   UNL d   1      13.645  -8.678  12.228  0.00  0.00    -0.049 Br
ATOM      6  C   UNL d   1      14.825  -9.764  14.655  0.00  0.00     0.047 A 
ATOM      7 BR   UNL d   1      13.613 -11.237  14.403  0.00  0.00    -0.048 Br
ATOM      8  C   UNL d   1      15.699  -9.744  15.742  0.00  0.00     0.048 A 
ATOM      9 BR   UNL d   1      15.703 -11.199  17.002  0.00  0.00    -0.048 Br
ATOM     10  C   UNL d   1      16.570  -8.668  15.916  0.00  0.00     0.047 A 
ATOM     11 BR   UNL d   1      17.784  -8.625  17.408  0.00  0.00    -0.048 Br
ATOM     12  C   UNL d   1      16.566  -7.614  15.003  0.00  0.00     0.037 A 
ATOM     13 BR   UNL d   1      17.739  -6.107  15.187  0.00  0.00    -0.049 Br
ENDBRANCH   2   3
ENDBRANCH   1   2
BRANCH   1  14
ATOM     14  C   UNL d   1      14.731  -4.195  12.433  0.00  0.00    -0.020 A 
ATOM     15  C   UNL d   1      14.557  -4.159  11.050  0.00  0.00     0.037 A 
ATOM     16 BR   UNL d   1      14.095  -5.793  10.158  0.00  0.00    -0.049 Br
ATOM     17  C   UNL d   1      14.720  -2.959  10.357  0.00  0.00     0.047 A 
ATOM     18 BR   UNL d   1      14.481  -2.928   8.448  0.00  0.00    -0.048 Br
ATOM     19  C   UNL d   1      15.058  -1.795  11.047  0.00  0.00     0.048 A 
ATOM     20 BR   UNL d   1      15.283  -0.139  10.091  0.00  0.00    -0.048 Br
ATOM     21  C   UNL d   1      15.232  -1.831  12.431  0.00  0.00     0.047 A 
ATOM     22 BR   UNL d   1      15.694  -0.235  13.400  0.00  0.00    -0.048 Br
ATOM     23  C   UNL d   1      15.068  -3.031  13.123  0.00  0.00     0.037 A 
ATOM     24 BR   UNL d   1      15.296  -3.147  15.024  0.00  0.00    -0.049 Br
ENDBRANCH   1  14
TORSDOF 3
ENDMDL
MODEL 5
REMARK VINA RESULT:      -4.9     24.229     27.852
REMARK  3 active torsions:
REMARK  status: ('A' for Active; 'I' for Inactive)
REMARK    1  A    between atoms: C_11  and  C_12 
REMARK    2  A    between atoms: C_11  and  C_13 
REMARK    3  A    between atoms: C_12  and  C_14 
ROOT
ATOM      1  C   UNL d   1      15.690  -6.566  12.910  0.00  0.00     0.045 C 
ENDROOT
BRANCH   1   2
ATOM      2  C   UNL d   1      14.508  -5.599  13.084  0.00  0.00     0.045 C 
BRANCH   2   3
ATOM      3  C   UNL d   1      14.683  -4.300  12.336  0.00  0.00    -0.020 A 
ATOM      4  C   UNL d   1      15.011  -3.142  13.033  0.00  0.00     0.037 A 
ATOM      5 BR   UNL d   1      15.230  -3.259  14.936  0.00  0.00    -0.049 Br
ATOM      6  C   UNL d   1      15.172  -1.941  12.344  0.00  0.00     0.047 A 
ATOM      7 BR   UNL d   1      15.621  -0.343  13.316  0.00  0.00    -0.048 Br
ATOM      8  C   UNL d   1      15.002  -1.903  10.960  0.00  0.00     0.048 A 
ATOM      9 BR   UNL d   1      15.223  -0.245  10.007  0.00  0.00    -0.048 Br
ATOM     10  C   UNL d   1      14.672  -3.068  10.266  0.00  0.00     0.047 A 
ATOM     11 BR   UNL d   1      14.438  -3.035   8.356  0.00  0.00    -0.048 Br
ATOM     12  C   UNL d   1      14.512  -4.269  10.957  0.00  0.00     0.037 A 
ATOM     13 BR   UNL d   1      14.058  -5.903  10.061  0.00  0.00    -0.049 Br
ENDBRANCH   2   3
ENDBRANCH   1   2
BRANCH   1  14
ATOM     14  C   UNL d   1      15.696  -7.697  13.898  0.00  0.00    -0.020 A 
ATOM     15  C   UNL d   1      14.840  -8.783  13.719  0.00  0.00     0.037 A 
ATOM     16 BR   UNL d   1      13.680  -8.773  12.192  0.00  0.00    -0.049 Br
ATOM     17  C   UNL d   1      14.843  -9.833  14.637  0.00  0.00     0.047 A 
ATOM     18 BR   UNL d   1      13.652 -11.321  14.379  0.00  0.00    -0.048 Br
ATOM     19  C   UNL d   1      15.703  -9.797  15.735  0.00  0.00     0.048 A 
ATOM     20 BR   UNL d   1      15.708 -11.246  17.002  0.00  0.00    -0.048 Br
ATOM     21  C   UNL d   1      16.560  -8.710  15.914  0.00  0.00     0.047 A 
ATOM     22 BR   UNL d   1      17.756  -8.646  17.420  0.00  0.00    -0.048 Br
ATOM     23  C   UNL d   1      16.556  -7.661  14.995  0.00  0.00     0.037 A 
ATOM     24 BR   UNL d   1      17.708  -6.139  15.185  0.00  0.00    -0.049 Br
ENDBRANCH   1  14
TORSDOF 3
ENDMDL
MODEL 6
REMARK VINA RESULT:      -4.9     24.169     27.705
REMARK  3 active torsions:
REMARK  status: ('A' for Active; 'I' for Inactive)
REMARK    1  A    between atoms: C_11  and  C_12 
REMARK    2  A    between atoms: C_11  and  C_13 
REMARK    3  A    between atoms: C_12  and  C_14 
ROOT
ATOM      1  C   UNL d   1      15.635  -6.458  12.785  0.00  0.00     0.045 C 
ENDROOT
BRANCH   1   2
ATOM      2  C   UNL d   1      14.464  -5.479  12.966  0.00  0.00     0.045 C 
BRANCH   2   3
ATOM      3  C   UNL d   1      14.672  -4.160  12.262  0.00  0.00    -0.020 A 
ATOM      4  C   UNL d   1      15.003  -3.029  13.000  0.00  0.00     0.037 A 
ATOM      5 BR   UNL d   1      15.182  -3.206  14.902  0.00  0.00    -0.049 Br
ATOM      6  C   UNL d   1      15.194  -1.811  12.350  0.00  0.00     0.047 A 
ATOM      7 BR   UNL d   1      15.647  -0.249  13.379  0.00  0.00    -0.048 Br
ATOM      8  C   UNL d   1      15.052  -1.728  10.965  0.00  0.00     0.048 A 
ATOM      9 BR   UNL d   1      15.316  -0.047  10.067  0.00  0.00    -0.048 Br
ATOM     10  C   UNL d   1      14.720  -2.868  10.230  0.00  0.00     0.047 A 
ATOM     11 BR   UNL d   1      14.524  -2.774   8.318  0.00  0.00    -0.048 Br
ATOM     12  C   UNL d   1      14.529  -4.086  10.881  0.00  0.00     0.037 A 
ATOM     13 BR   UNL d   1      14.070  -5.686   9.928  0.00  0.00    -0.049 Br
ENDBRANCH   2   3
ENDBRANCH   1   2
BRANCH   1  14
ATOM     14  C   UNL d   1      15.626  -7.598  13.762  0.00  0.00    -0.020 A 
ATOM     15  C   UNL d   1      16.458  -7.564  14.880  0.00  0.00     0.037 A 
ATOM     16 BR   UNL d   1      17.590  -6.034  15.114  0.00  0.00    -0.049 Br
ATOM     17  C   UNL d   1      16.452  -8.625  15.787  0.00  0.00     0.047 A 
ATOM     18 BR   UNL d   1      17.611  -8.564  17.322  0.00  0.00    -0.048 Br
ATOM     19  C   UNL d   1      15.613  -9.718  15.576  0.00  0.00     0.048 A 
ATOM     20 BR   UNL d   1      15.603 -11.181  16.828  0.00  0.00    -0.048 Br
ATOM     21  C   UNL d   1      14.780  -9.753  14.457  0.00  0.00     0.047 A 
ATOM     22 BR   UNL d   1      13.613 -11.251  14.152  0.00  0.00    -0.048 Br
ATOM     23  C   UNL d   1      14.787  -8.692  13.551  0.00  0.00     0.037 A 
ATOM     24 BR   UNL d   1      13.667  -8.679  11.993  0.00  0.00    -0.049 Br
ENDBRANCH   1  14
TORSDOF 3
ENDMDL
MODEL 7
REMARK VINA RESULT:      -4.9     24.189     27.706
REMARK  3 active torsions:
REMARK  status: ('A' for Active; 'I' for Inactive)
REMARK    1  A    between atoms: C_11  and  C_12 
REMARK    2  A    between atoms: C_11  and  C_13 
REMARK    3  A    between atoms: C_12  and  C_14 
ROOT
ATOM      1  C   UNL d   1      15.641  -6.473  12.737  0.00  0.00     0.045 C 
ENDROOT
BRANCH   1   2
ATOM      2  C   UNL d   1      14.476  -5.490  12.940  0.00  0.00     0.045 C 
BRANCH   2   3
ATOM      3  C   UNL d   1      14.680  -4.168  12.242  0.00  0.00    -0.020 A 
ATOM      4  C   UNL d   1      14.534  -4.087  10.861  0.00  0.00     0.037 A 
ATOM      5 BR   UNL d   1      14.071  -5.684   9.903  0.00  0.00    -0.049 Br
ATOM      6  C   UNL d   1      14.723  -2.867  10.215  0.00  0.00     0.047 A 
ATOM      7 BR   UNL d   1      14.523  -2.766   8.304  0.00  0.00    -0.048 Br
ATOM      8  C   UNL d   1      15.060  -1.732  10.952  0.00  0.00     0.048 A 
ATOM      9 BR   UNL d   1      15.322  -0.046  10.061  0.00  0.00    -0.048 Br
ATOM     10  C   UNL d   1      15.206  -1.819  12.338  0.00  0.00     0.047 A 
ATOM     11 BR   UNL d   1      15.666  -0.262  13.371  0.00  0.00    -0.048 Br
ATOM     12  C   UNL d   1      15.016  -3.040  12.983  0.00  0.00     0.037 A 
ATOM     13 BR   UNL d   1      15.203  -3.225  14.883  0.00  0.00    -0.049 Br
ENDBRANCH   2   3
ENDBRANCH   1   2
BRANCH   1  14
ATOM     14  C   UNL d   1      15.647  -7.613  13.713  0.00  0.00    -0.020 A 
ATOM     15  C   UNL d   1      14.806  -8.707  13.512  0.00  0.00     0.037 A 
ATOM     16 BR   UNL d   1      13.666  -8.695  11.969  0.00  0.00    -0.049 Br
ATOM     17  C   UNL d   1      14.809  -9.767  14.420  0.00  0.00     0.047 A 
ATOM     18 BR   UNL d   1      13.639 -11.266  14.130  0.00  0.00    -0.048 Br
ATOM     19  C   UNL d   1      15.654  -9.732  15.529  0.00  0.00     0.048 A 
ATOM     20 BR   UNL d   1      15.660 -11.194  16.782  0.00  0.00    -0.048 Br
ATOM     21  C   UNL d   1      16.496  -8.637  15.731  0.00  0.00     0.047 A 
ATOM     22 BR   UNL d   1      17.671  -8.574  17.252  0.00  0.00    -0.048 Br
ATOM     23  C   UNL d   1      16.492  -7.579  14.822  0.00  0.00     0.037 A 
ATOM     24 BR   UNL d   1      17.623  -6.045  15.043  0.00  0.00    -0.049 Br
ENDBRANCH   1  14
TORSDOF 3
ENDMDL
MODEL 8
REMARK VINA RESULT:      -4.9     24.205     27.226
REMARK  3 active torsions:
REMARK  status: ('A' for Active; 'I' for Inactive)
REMARK    1  A    between atoms: C_11  and  C_12 
REMARK    2  A    between atoms: C_11  and  C_13 
REMARK    3  A    between atoms: C_12  and  C_14 
ROOT
ATOM      1  C   UNL d   1      14.519  -5.519  12.903  0.00  0.00     0.045 C 
ENDROOT
BRANCH   1   2
ATOM      2  C   UNL d   1      15.709  -6.479  12.741  0.00  0.00     0.045 C 
BRANCH   2   3
ATOM      3  C   UNL d   1      15.696  -7.620  13.729  0.00  0.00    -0.020 A 
ATOM      4  C   UNL d   1      16.530  -7.578  14.842  0.00  0.00     0.037 A 
ATOM      5 BR   UNL d   1      17.667  -6.049  15.067  0.00  0.00    -0.049 Br
ATOM      6  C   UNL d   1      16.519  -8.632  15.754  0.00  0.00     0.047 A 
ATOM      7 BR   UNL d   1      17.679  -8.568  17.288  0.00  0.00    -0.048 Br
ATOM      8  C   UNL d   1      15.676  -9.725  15.549  0.00  0.00     0.048 A 
ATOM      9 BR   UNL d   1      15.662 -11.180  16.808  0.00  0.00    -0.048 Br
ATOM     10  C   UNL d   1      14.843  -9.761  14.430  0.00  0.00     0.047 A 
ATOM     11 BR   UNL d   1      13.671 -11.258  14.133  0.00  0.00    -0.048 Br
ATOM     12  C   UNL d   1      14.854  -8.706  13.518  0.00  0.00     0.037 A 
ATOM     13 BR   UNL d   1      13.733  -8.697  11.961  0.00  0.00    -0.049 Br
ENDBRANCH   2   3
ENDBRANCH   1   2
BRANCH   1  14
ATOM     14  C   UNL d   1      14.714  -4.196  12.221  0.00  0.00    -0.020 A 
ATOM     15  C   UNL d   1      14.571  -4.098  10.837  0.00  0.00     0.037 A 
ATOM     16 BR   UNL d   1      14.127  -5.688   9.862  0.00  0.00    -0.049 Br
ATOM     17  C   UNL d   1      14.754  -2.869  10.202  0.00  0.00     0.047 A 
ATOM     18 BR   UNL d   1      14.560  -2.751   8.292  0.00  0.00    -0.048 Br
ATOM     19  C   UNL d   1      15.078  -1.738  10.951  0.00  0.00     0.048 A 
ATOM     20 BR   UNL d   1      15.329  -0.041  10.076  0.00  0.00    -0.048 Br
ATOM     21  C   UNL d   1      15.220  -1.836  12.336  0.00  0.00     0.047 A 
ATOM     22 BR   UNL d   1      15.663  -0.286  13.386  0.00  0.00    -0.048 Br
ATOM     23  C   UNL d   1      15.037  -3.066  12.970  0.00  0.00     0.037 A 
ATOM     24 BR   UNL d   1      15.220  -3.267  14.869  0.00  0.00    -0.049 Br
ENDBRANCH   1  14
TORSDOF 3
ENDMDL
MODEL 9
REMARK VINA RESULT:      -4.9     24.192     27.176
REMARK  3 active torsions:
REMARK  status: ('A' for Active; 'I' for Inactive)
REMARK    1  A    between atoms: C_11  and  C_12 
REMARK    2  A    between atoms: C_11  and  C_13 
REMARK    3  A    between atoms: C_12  and  C_14 
ROOT
ATOM      1  C   UNL d   1      14.533  -5.457  12.810  0.00  0.00     0.045 C 
ENDROOT
BRANCH   1   2
ATOM      2  C   UNL d   1      15.738  -6.403  12.678  0.00  0.00     0.045 C 
BRANCH   2   3
ATOM      3  C   UNL d   1      15.707  -7.552  13.656  0.00  0.00    -0.020 A 
ATOM      4  C   UNL d   1      16.524  -7.522  14.781  0.00  0.00     0.037 A 
ATOM      5 BR   UNL d   1      17.663  -5.999  15.035  0.00  0.00    -0.049 Br
ATOM      6  C   UNL d   1      16.497  -8.583  15.684  0.00  0.00     0.047 A 
ATOM      7 BR   UNL d   1      17.634  -8.536  17.236  0.00  0.00    -0.048 Br
ATOM      8  C   UNL d   1      15.653  -9.671  15.458  0.00  0.00     0.048 A 
ATOM      9 BR   UNL d   1      15.615 -11.137  16.705  0.00  0.00    -0.048 Br
ATOM     10  C   UNL d   1      14.836  -9.695  14.327  0.00  0.00     0.047 A 
ATOM     11 BR   UNL d   1      13.663 -11.186  14.001  0.00  0.00    -0.048 Br
ATOM     12  C   UNL d   1      14.864  -8.633  13.424  0.00  0.00     0.037 A 
ATOM     13 BR   UNL d   1      13.766  -8.608  11.852  0.00  0.00    -0.049 Br
ENDBRANCH   2   3
ENDBRANCH   1   2
BRANCH   1  14
ATOM     14  C   UNL d   1      14.732  -4.129  12.140  0.00  0.00    -0.020 A 
ATOM     15  C   UNL d   1      15.056  -3.006  12.900  0.00  0.00     0.037 A 
ATOM     16 BR   UNL d   1      15.234  -3.224  14.797  0.00  0.00    -0.049 Br
ATOM     17  C   UNL d   1      15.239  -1.770  12.278  0.00  0.00     0.047 A 
ATOM     18 BR   UNL d   1      15.680  -0.230  13.343  0.00  0.00    -0.048 Br
ATOM     19  C   UNL d   1      15.098  -1.658  10.896  0.00  0.00     0.048 A 
ATOM     20 BR   UNL d   1      15.351   0.047  10.037  0.00  0.00    -0.048 Br
ATOM     21  C   UNL d   1      14.773  -2.781  10.134  0.00  0.00     0.047 A 
ATOM     22 BR   UNL d   1      14.579  -2.646   8.225  0.00  0.00    -0.048 Br
ATOM     23  C   UNL d   1      14.591  -4.016  10.757  0.00  0.00     0.037 A 
ATOM     24 BR   UNL d   1      14.143  -5.597   9.767  0.00  0.00    -0.049 Br
ENDBRANCH   1  14
TORSDOF 3
ENDMDL
