MODEL 1
REMARK VINA RESULT:      -7.0      0.000      0.000
REMARK  1 active torsions:
REMARK  status: ('A' for Active; 'I' for Inactive)
REMARK    1  A    between atoms: O_1  and  C_13 
ROOT
ATOM      1  O   UNL d   1       0.967   9.578  19.811  0.00  0.00    -0.298 OA
ATOM      2  C   UNL d   1      -2.767  14.670  18.730  0.00  0.00    -0.005 C 
ATOM      3  C   UNL d   1      -1.247  14.605  19.077  0.00  0.00    -0.002 C 
ATOM      4  C   UNL d   1      -3.235  16.123  18.857  0.00  0.00     0.001 C 
ATOM      5  C   UNL d   1      -2.479  17.079  17.914  0.00  0.00    -0.014 C 
ATOM      6  C   UNL d   1      -0.682  13.136  19.027  0.00  0.00    -0.036 C 
ATOM      7  C   UNL d   1      -1.567  12.230  19.942  0.00  0.00     0.001 C 
ATOM      8  C   UNL d   1      -0.419  15.633  18.256  0.00  0.00     0.007 C 
ATOM      9  C   UNL d   1      -0.995  17.060  18.308  0.00  0.00     0.012 C 
ATOM     10  C   UNL d   1      -3.575  13.744  19.648  0.00  0.00     0.006 C 
ATOM     11  C   UNL d   1      -4.703  16.459  18.601  0.00  0.00     0.008 C 
ATOM     12  C   UNL d   1      -3.215  18.391  18.243  0.00  0.00     0.126 C 
ATOM     13  C   UNL d   1      -3.062  12.310  19.605  0.00  0.00     0.006 C 
ATOM     14  C   UNL d   1      -4.697  17.975  18.335  0.00  0.00     0.033 C 
ATOM     15  C   UNL d   1       0.782  13.113  19.572  0.00  0.00     0.017 C 
ATOM     16  C   UNL d   1      -2.620  16.746  16.407  0.00  0.00     0.018 C 
ATOM     17  C   UNL d   1      -0.662  12.604  17.570  0.00  0.00     0.016 C 
ATOM     18  C   UNL d   1      -1.107  10.764  19.940  0.00  0.00     0.083 C 
ATOM     19  C   UNL d   1       1.164  11.887  20.402  0.00  0.00     0.079 C 
ATOM     20  C   UNL d   1       0.398  10.653  20.004  0.00  0.00     0.127 C 
ENDROOT
BRANCH  12  21
ATOM     21  O   UNL d   1      -3.012  19.398  17.270  0.00  0.00    -0.395 OA
ATOM     22  H   UNL d   1      -2.090  19.361  16.966  0.00  0.00     0.210 HD
ENDBRANCH  12  21
TORSDOF 1
ENDMDL
MODEL 2
REMARK VINA RESULT:      -6.8      1.343      2.822
REMARK  1 active torsions:
REMARK  status: ('A' for Active; 'I' for Inactive)
REMARK    1  A    between atoms: O_1  and  C_13 
ROOT
ATOM      1  O   UNL d   1      -0.056   8.100  20.081  0.00  0.00    -0.298 OA
ATOM      2  C   UNL d   1      -0.916  14.336  18.897  0.00  0.00    -0.005 C 
ATOM      3  C   UNL d   1      -1.384  13.093  18.077  0.00  0.00    -0.002 C 
ATOM      4  C   UNL d   1      -1.122  15.590  18.040  0.00  0.00     0.001 C 
ATOM      5  C   UNL d   1      -2.592  15.801  17.630  0.00  0.00    -0.014 C 
ATOM      6  C   UNL d   1      -1.161  11.743  18.856  0.00  0.00    -0.036 C 
ATOM      7  C   UNL d   1       0.333  11.666  19.304  0.00  0.00     0.001 C 
ATOM      8  C   UNL d   1      -2.822  13.274  17.515  0.00  0.00     0.007 C 
ATOM      9  C   UNL d   1      -3.021  14.605  16.768  0.00  0.00     0.012 C 
ATOM     10  C   UNL d   1       0.550  14.188  19.322  0.00  0.00     0.006 C 
ATOM     11  C   UNL d   1      -0.710  16.951  18.599  0.00  0.00     0.008 C 
ATOM     12  C   UNL d   1      -2.452  17.129  16.865  0.00  0.00     0.126 C 
ATOM     13  C   UNL d   1       0.790  12.897  20.096  0.00  0.00     0.006 C 
ATOM     14  C   UNL d   1      -1.483  17.959  17.730  0.00  0.00     0.033 C 
ATOM     15  C   UNL d   1      -1.461  10.532  17.914  0.00  0.00     0.017 C 
ATOM     16  C   UNL d   1      -3.576  15.964  18.817  0.00  0.00     0.018 C 
ATOM     17  C   UNL d   1      -2.113  11.649  20.077  0.00  0.00     0.016 C 
ATOM     18  C   UNL d   1       0.644  10.387  20.097  0.00  0.00     0.083 C 
ATOM     19  C   UNL d   1      -0.550   9.317  18.083  0.00  0.00     0.079 C 
ATOM     20  C   UNL d   1      -0.019   9.176  19.485  0.00  0.00     0.127 C 
ENDROOT
BRANCH  12  21
ATOM     21  O   UNL d   1      -3.688  17.793  16.678  0.00  0.00    -0.395 OA
ATOM     22  H   UNL d   1      -3.812  18.436  17.395  0.00  0.00     0.210 HD
ENDBRANCH  12  21
TORSDOF 1
ENDMDL
MODEL 3
REMARK VINA RESULT:      -6.5     23.762     25.206
REMARK  1 active torsions:
REMARK  status: ('A' for Active; 'I' for Inactive)
REMARK    1  A    between atoms: O_1  and  C_13 
ROOT
ATOM      1  O   UNL d   1      16.227   2.221   6.673  0.00  0.00    -0.298 OA
ATOM      2  C   UNL d   1      16.516  -0.817  12.305  0.00  0.00    -0.005 C 
ATOM      3  C   UNL d   1      15.344  -0.733  11.278  0.00  0.00    -0.002 C 
ATOM      4  C   UNL d   1      15.979  -1.417  13.609  0.00  0.00     0.001 C 
ATOM      5  C   UNL d   1      15.392  -2.829  13.422  0.00  0.00    -0.014 C 
ATOM      6  C   UNL d   1      15.785  -0.076   9.917  0.00  0.00    -0.036 C 
ATOM      7  C   UNL d   1      16.446   1.306  10.221  0.00  0.00     0.001 C 
ATOM      8  C   UNL d   1      14.610  -2.094  11.120  0.00  0.00     0.007 C 
ATOM      9  C   UNL d   1      14.198  -2.724  12.463  0.00  0.00     0.012 C 
ATOM     10  C   UNL d   1      17.133   0.567  12.543  0.00  0.00     0.006 C 
ATOM     11  C   UNL d   1      16.923  -1.579  14.799  0.00  0.00     0.008 C 
ATOM     12  C   UNL d   1      15.020  -3.142  14.883  0.00  0.00     0.126 C 
ATOM     13  C   UNL d   1      17.588   1.218  11.242  0.00  0.00     0.006 C 
ATOM     14  C   UNL d   1      16.217  -2.612  15.696  0.00  0.00     0.033 C 
ATOM     15  C   UNL d   1      14.533   0.160   9.012  0.00  0.00     0.017 C 
ATOM     16  C   UNL d   1      16.398  -3.880  12.885  0.00  0.00     0.018 C 
ATOM     17  C   UNL d   1      16.765  -1.004   9.151  0.00  0.00     0.016 C 
ATOM     18  C   UNL d   1      16.935   2.017   8.949  0.00  0.00     0.083 C 
ATOM     19  C   UNL d   1      14.544   1.445   8.184  0.00  0.00     0.079 C 
ATOM     20  C   UNL d   1      15.935   1.895   7.824  0.00  0.00     0.127 C 
ENDROOT
BRANCH  12  21
ATOM     21  O   UNL d   1      14.798  -4.521  15.113  0.00  0.00    -0.395 OA
ATOM     22  H   UNL d   1      13.851  -4.710  15.008  0.00  0.00     0.210 HD
ENDBRANCH  12  21
TORSDOF 1
ENDMDL
MODEL 4
REMARK VINA RESULT:      -6.5      1.647      6.911
REMARK  1 active torsions:
REMARK  status: ('A' for Active; 'I' for Inactive)
REMARK    1  A    between atoms: O_1  and  C_13 
ROOT
ATOM      1  O   UNL d   1      -2.552  17.748  17.887  0.00  0.00    -0.298 OA
ATOM      2  C   UNL d   1      -0.428  11.826  19.092  0.00  0.00    -0.005 C 
ATOM      3  C   UNL d   1      -1.871  12.410  19.210  0.00  0.00    -0.002 C 
ATOM      4  C   UNL d   1      -0.402  10.452  19.770  0.00  0.00     0.001 C 
ATOM      5  C   UNL d   1      -1.387   9.452  19.134  0.00  0.00    -0.014 C 
ATOM      6  C   UNL d   1      -1.987  13.852  18.588  0.00  0.00    -0.036 C 
ATOM      7  C   UNL d   1      -0.893  14.762  19.230  0.00  0.00     0.001 C 
ATOM      8  C   UNL d   1      -2.947  11.409  18.705  0.00  0.00     0.007 C 
ATOM      9  C   UNL d   1      -2.808  10.003  19.317  0.00  0.00     0.012 C 
ATOM     10  C   UNL d   1       0.598  12.776  19.722  0.00  0.00     0.006 C 
ATOM     11  C   UNL d   1       0.911   9.672  19.823  0.00  0.00     0.008 C 
ATOM     12  C   UNL d   1      -1.065   8.208  19.983  0.00  0.00     0.126 C 
ATOM     13  C   UNL d   1       0.521  14.175  19.122  0.00  0.00     0.006 C 
ATOM     14  C   UNL d   1       0.472   8.223  20.101  0.00  0.00     0.033 C 
ATOM     15  C   UNL d   1      -3.391  14.457  18.912  0.00  0.00     0.017 C 
ATOM     16  C   UNL d   1      -1.133   9.160  17.633  0.00  0.00     0.018 C 
ATOM     17  C   UNL d   1      -1.831  13.798  17.045  0.00  0.00     0.016 C 
ATOM     18  C   UNL d   1      -0.911  16.191  18.665  0.00  0.00     0.083 C 
ATOM     19  C   UNL d   1      -3.416  15.955  19.213  0.00  0.00     0.079 C 
ATOM     20  C   UNL d   1      -2.321  16.710  18.507  0.00  0.00     0.127 C 
ENDROOT
BRANCH  12  21
ATOM     21  O   UNL d   1      -1.535   7.006  19.403  0.00  0.00    -0.395 OA
ATOM     22  H   UNL d   1      -2.505   7.030  19.370  0.00  0.00     0.210 HD
ENDBRANCH  12  21
TORSDOF 1
ENDMDL
MODEL 5
REMARK VINA RESULT:      -6.1     24.481     27.769
REMARK  1 active torsions:
REMARK  status: ('A' for Active; 'I' for Inactive)
REMARK    1  A    between atoms: O_1  and  C_13 
ROOT
ATOM      1  O   UNL d   1      16.820 -11.342  15.070  0.00  0.00    -0.298 OA
ATOM      2  C   UNL d   1      17.180  -4.965  14.581  0.00  0.00    -0.005 C 
ATOM      3  C   UNL d   1      16.234  -5.968  13.851  0.00  0.00    -0.002 C 
ATOM      4  C   UNL d   1      17.060  -3.597  13.901  0.00  0.00     0.001 C 
ATOM      5  C   UNL d   1      15.627  -3.033  13.940  0.00  0.00    -0.014 C 
ATOM      6  C   UNL d   1      16.327  -7.423  14.446  0.00  0.00    -0.036 C 
ATOM      7  C   UNL d   1      17.824  -7.867  14.444  0.00  0.00     0.001 C 
ATOM      8  C   UNL d   1      14.784  -5.420  13.734  0.00  0.00     0.007 C 
ATOM      9  C   UNL d   1      14.717  -3.992  13.161  0.00  0.00     0.012 C 
ATOM     10  C   UNL d   1      18.628  -5.469  14.562  0.00  0.00     0.006 C 
ATOM     11  C   UNL d   1      17.914  -2.435  14.406  0.00  0.00     0.008 C 
ATOM     12  C   UNL d   1      15.872  -1.676  13.253  0.00  0.00     0.126 C 
ATOM     13  C   UNL d   1      18.751  -6.870  15.152  0.00  0.00     0.006 C 
ATOM     14  C   UNL d   1      17.201  -1.185  13.859  0.00  0.00     0.033 C 
ATOM     15  C   UNL d   1      15.513  -8.413  13.552  0.00  0.00     0.017 C 
ATOM     16  C   UNL d   1      15.056  -2.819  15.366  0.00  0.00     0.018 C 
ATOM     17  C   UNL d   1      15.734  -7.469  15.879  0.00  0.00     0.016 C 
ATOM     18  C   UNL d   1      18.021  -9.273  15.033  0.00  0.00     0.083 C 
ATOM     19  C   UNL d   1      16.123  -9.804  13.377  0.00  0.00     0.079 C 
ATOM     20  C   UNL d   1      16.953 -10.230  14.558  0.00  0.00     0.127 C 
ENDROOT
BRANCH  12  21
ATOM     21  O   UNL d   1      14.823  -0.751  13.468  0.00  0.00    -0.395 OA
ATOM     22  H   UNL d   1      14.261  -1.074  14.191  0.00  0.00     0.210 HD
ENDBRANCH  12  21
TORSDOF 1
ENDMDL
MODEL 6
REMARK VINA RESULT:      -5.9     24.404     28.992
REMARK  1 active torsions:
REMARK  status: ('A' for Active; 'I' for Inactive)
REMARK    1  A    between atoms: O_1  and  C_13 
ROOT
ATOM      1  O   UNL d   1      15.668  -0.493  13.757  0.00  0.00    -0.298 OA
ATOM      2  C   UNL d   1      18.425  -6.202  14.670  0.00  0.00    -0.005 C 
ATOM      3  C   UNL d   1      17.012  -5.699  15.100  0.00  0.00    -0.002 C 
ATOM      4  C   UNL d   1      18.705  -7.532  15.378  0.00  0.00     0.001 C 
ATOM      5  C   UNL d   1      17.672  -8.623  15.032  0.00  0.00    -0.014 C 
ATOM      6  C   UNL d   1      16.653  -4.304  14.464  0.00  0.00    -0.036 C 
ATOM      7  C   UNL d   1      17.799  -3.295  14.794  0.00  0.00     0.001 C 
ATOM      8  C   UNL d   1      15.921  -6.788  14.902  0.00  0.00     0.007 C 
ATOM      9  C   UNL d   1      16.297  -8.147  15.521  0.00  0.00     0.012 C 
ATOM     10  C   UNL d   1      19.500  -5.160  15.002  0.00  0.00     0.006 C 
ATOM     11  C   UNL d   1      20.046  -8.229  15.153  0.00  0.00     0.008 C 
ATOM     12  C   UNL d   1      18.269  -9.796  15.832  0.00  0.00     0.126 C 
ATOM     13  C   UNL d   1      19.187  -3.803  14.381  0.00  0.00     0.006 C 
ATOM     14  C   UNL d   1      19.786  -9.683  15.585  0.00  0.00     0.033 C 
ATOM     15  C   UNL d   1      15.323  -3.765  15.084  0.00  0.00     0.017 C 
ATOM     16  C   UNL d   1      17.592  -8.982  13.526  0.00  0.00     0.018 C 
ATOM     17  C   UNL d   1      16.451  -4.434  12.931  0.00  0.00     0.016 C 
ATOM     18  C   UNL d   1      17.550  -1.904  14.191  0.00  0.00     0.083 C 
ATOM     19  C   UNL d   1      15.263  -2.256  15.321  0.00  0.00     0.079 C 
ATOM     20  C   UNL d   1      16.109  -1.479  14.347  0.00  0.00     0.127 C 
ENDROOT
BRANCH  12  21
ATOM     21  O   UNL d   1      17.763 -11.054  15.427  0.00  0.00    -0.395 OA
ATOM     22  H   UNL d   1      18.130 -11.276  14.555  0.00  0.00     0.210 HD
ENDBRANCH  12  21
TORSDOF 1
ENDMDL
MODEL 7
REMARK VINA RESULT:      -5.7      1.289      6.638
REMARK  1 active torsions:
REMARK  status: ('A' for Active; 'I' for Inactive)
REMARK    1  A    between atoms: O_1  and  C_13 
ROOT
ATOM      1  O   UNL d   1      -6.445  18.277  17.106  0.00  0.00    -0.298 OA
ATOM      2  C   UNL d   1      -1.568  14.449  18.720  0.00  0.00    -0.005 C 
ATOM      3  C   UNL d   1      -3.071  14.377  19.135  0.00  0.00    -0.002 C 
ATOM      4  C   UNL d   1      -0.771  13.482  19.601  0.00  0.00     0.001 C 
ATOM      5  C   UNL d   1      -1.244  12.022  19.468  0.00  0.00    -0.014 C 
ATOM      6  C   UNL d   1      -3.968  15.381  18.318  0.00  0.00    -0.036 C 
ATOM      7  C   UNL d   1      -3.357  16.812  18.444  0.00  0.00     0.001 C 
ATOM      8  C   UNL d   1      -3.600  12.916  19.149  0.00  0.00     0.007 C 
ATOM      9  C   UNL d   1      -2.702  11.950  19.943  0.00  0.00     0.012 C 
ATOM     10  C   UNL d   1      -1.036  15.883  18.846  0.00  0.00     0.006 C 
ATOM     11  C   UNL d   1       0.743  13.383  19.421  0.00  0.00     0.008 C 
ATOM     12  C   UNL d   1      -0.227  11.342  20.402  0.00  0.00     0.126 C 
ATOM     13  C   UNL d   1      -1.875  16.873  18.047  0.00  0.00     0.006 C 
ATOM     14  C   UNL d   1       1.108  12.037  20.073  0.00  0.00     0.033 C 
ATOM     15  C   UNL d   1      -5.413  15.403  18.913  0.00  0.00     0.017 C 
ATOM     16  C   UNL d   1      -1.136  11.437  18.036  0.00  0.00     0.018 C 
ATOM     17  C   UNL d   1      -4.065  14.946  16.832  0.00  0.00     0.016 C 
ATOM     18  C   UNL d   1      -4.153  17.863  17.655  0.00  0.00     0.083 C 
ATOM     19  C   UNL d   1      -6.104  16.766  18.928  0.00  0.00     0.079 C 
ATOM     20  C   UNL d   1      -5.642  17.667  17.813  0.00  0.00     0.127 C 
ENDROOT
BRANCH  12  21
ATOM     21  O   UNL d   1      -0.151   9.942  20.210  0.00  0.00    -0.395 OA
ATOM     22  H   UNL d   1       0.515   9.576  20.816  0.00  0.00     0.210 HD
ENDBRANCH  12  21
TORSDOF 1
ENDMDL
MODEL 8
REMARK VINA RESULT:      -5.6     24.933     28.812
REMARK  1 active torsions:
REMARK  status: ('A' for Active; 'I' for Inactive)
REMARK    1  A    between atoms: O_1  and  C_13 
ROOT
ATOM      1  O   UNL d   1      20.197 -11.020  12.290  0.00  0.00    -0.298 OA
ATOM      2  C   UNL d   1      17.359  -5.657  14.342  0.00  0.00    -0.005 C 
ATOM      3  C   UNL d   1      17.449  -6.247  12.900  0.00  0.00    -0.002 C 
ATOM      4  C   UNL d   1      16.828  -4.222  14.249  0.00  0.00     0.001 C 
ATOM      5  C   UNL d   1      15.433  -4.142  13.601  0.00  0.00    -0.014 C 
ATOM      6  C   UNL d   1      18.039  -7.707  12.885  0.00  0.00    -0.036 C 
ATOM      7  C   UNL d   1      19.406  -7.700  13.641  0.00  0.00     0.001 C 
ATOM      8  C   UNL d   1      16.111  -6.093  12.123  0.00  0.00     0.007 C 
ATOM      9  C   UNL d   1      15.547  -4.661  12.161  0.00  0.00     0.012 C 
ATOM     10  C   UNL d   1      18.726  -5.699  15.035  0.00  0.00     0.006 C 
ATOM     11  C   UNL d   1      16.674  -3.400  15.528  0.00  0.00     0.008 C 
ATOM     12  C   UNL d   1      15.187  -2.626  13.721  0.00  0.00     0.126 C 
ATOM     13  C   UNL d   1      19.312  -7.106  15.052  0.00  0.00     0.006 C 
ATOM     14  C   UNL d   1      15.701  -2.275  15.131  0.00  0.00     0.033 C 
ATOM     15  C   UNL d   1      18.288  -8.162  11.411  0.00  0.00     0.017 C 
ATOM     16  C   UNL d   1      14.326  -4.928  14.349  0.00  0.00     0.018 C 
ATOM     17  C   UNL d   1      17.047  -8.707  13.537  0.00  0.00     0.016 C 
ATOM     18  C   UNL d   1      20.051  -9.094  13.701  0.00  0.00     0.083 C 
ATOM     19  C   UNL d   1      19.540  -9.007  11.179  0.00  0.00     0.079 C 
ATOM     20  C   UNL d   1      19.924  -9.823  12.384  0.00  0.00     0.127 C 
ENDROOT
BRANCH  12  21
ATOM     21  O   UNL d   1      13.826  -2.272  13.556  0.00  0.00    -0.395 OA
ATOM     22  H   UNL d   1      13.340  -2.502  14.365  0.00  0.00     0.210 HD
ENDBRANCH  12  21
TORSDOF 1
ENDMDL
MODEL 9
REMARK VINA RESULT:      -5.6     17.189     18.912
REMARK  1 active torsions:
REMARK  status: ('A' for Active; 'I' for Inactive)
REMARK    1  A    between atoms: O_1  and  C_13 
ROOT
ATOM      1  O   UNL d   1       9.717  14.899  13.051  0.00  0.00    -0.298 OA
ATOM      2  C   UNL d   1      14.989  16.482   9.773  0.00  0.00    -0.005 C 
ATOM      3  C   UNL d   1      13.516  16.328   9.278  0.00  0.00    -0.002 C 
ATOM      4  C   UNL d   1      15.906  16.587   8.551  0.00  0.00     0.001 C 
ATOM      5  C   UNL d   1      15.566  17.791   7.650  0.00  0.00    -0.014 C 
ATOM      6  C   UNL d   1      12.499  16.156  10.467  0.00  0.00    -0.036 C 
ATOM      7  C   UNL d   1      12.978  14.973  11.368  0.00  0.00     0.001 C 
ATOM      8  C   UNL d   1      13.126  17.437   8.261  0.00  0.00     0.007 C 
ATOM      9  C   UNL d   1      14.141  17.596   7.114  0.00  0.00     0.012 C 
ATOM     10  C   UNL d   1      15.389  15.301  10.667  0.00  0.00     0.006 C 
ATOM     11  C   UNL d   1      17.414  16.714   8.758  0.00  0.00     0.008 C 
ATOM     12  C   UNL d   1      16.677  17.637   6.595  0.00  0.00     0.126 C 
ATOM     13  C   UNL d   1      14.431  15.124  11.839  0.00  0.00     0.006 C 
ATOM     14  C   UNL d   1      17.928  17.275   7.420  0.00  0.00     0.033 C 
ATOM     15  C   UNL d   1      11.082  15.811   9.905  0.00  0.00     0.017 C 
ATOM     16  C   UNL d   1      15.673  19.171   8.349  0.00  0.00     0.018 C 
ATOM     17  C   UNL d   1      12.385  17.469  11.287  0.00  0.00     0.016 C 
ATOM     18  C   UNL d   1      12.057  14.743  12.576  0.00  0.00     0.083 C 
ATOM     19  C   UNL d   1      10.267  14.810  10.726  0.00  0.00     0.079 C 
ATOM     20  C   UNL d   1      10.600  14.852  12.194  0.00  0.00     0.127 C 
ENDROOT
BRANCH  12  21
ATOM     21  O   UNL d   1      16.877  18.809   5.828  0.00  0.00    -0.395 OA
ATOM     22  H   UNL d   1      17.724  18.739   5.359  0.00  0.00     0.210 HD
ENDBRANCH  12  21
TORSDOF 1
ENDMDL
