MODEL 1
REMARK VINA RESULT:      -5.7      0.000      0.000
REMARK  2 active torsions:
REMARK  status: ('A' for Active; 'I' for Inactive)
REMARK    1  A    between atoms: O_11  and  C_12 
REMARK    2  A    between atoms: O_11  and  C_13 
ROOT
ATOM      1  O   UNL d   1      14.814  -5.210  14.615  0.00  0.00    -0.305 OA
ENDROOT
BRANCH   1   2
ATOM      2  C   UNL d   1      15.580  -6.356  14.501  0.00  0.00     0.113 A 
ATOM      3  C   UNL d   1      14.972  -7.597  14.621  0.00  0.00     0.065 A 
ATOM      4 BR   UNL d   1      13.085  -7.648  14.943  0.00  0.00    -0.046 Br
ATOM      5  C   UNL d   1      15.746  -8.753  14.509  0.00  0.00     0.050 A 
ATOM      6 BR   UNL d   1      14.901 -10.472  14.680  0.00  0.00    -0.048 Br
ATOM      7  C   UNL d   1      17.117  -8.654  14.278  0.00  0.00     0.048 A 
ATOM      8 BR   UNL d   1      18.185 -10.249  14.126  0.00  0.00    -0.048 Br
ATOM      9  C   UNL d   1      17.716  -7.401  14.159  0.00  0.00     0.050 A 
ATOM     10 BR   UNL d   1      19.606  -7.243  13.840  0.00  0.00    -0.048 Br
ATOM     11  C   UNL d   1      16.943  -6.244  14.272  0.00  0.00     0.065 A 
ATOM     12 BR   UNL d   1      17.690  -4.488  14.120  0.00  0.00    -0.046 Br
ENDBRANCH   1   2
BRANCH   1  13
ATOM     13  C   UNL d   1      14.863  -4.315  13.584  0.00  0.00     0.113 A 
ATOM     14  C   UNL d   1      15.196  -2.983  13.832  0.00  0.00     0.065 A 
ATOM     15 BR   UNL d   1      15.571  -2.490  15.644  0.00  0.00    -0.046 Br
ATOM     16  C   UNL d   1      15.243  -2.068  12.780  0.00  0.00     0.050 A 
ATOM     17 BR   UNL d   1      15.701  -0.237  13.144  0.00  0.00    -0.048 Br
ATOM     18  C   UNL d   1      14.956  -2.485  11.480  0.00  0.00     0.048 A 
ATOM     19 BR   UNL d   1      15.018  -1.221  10.029  0.00  0.00    -0.048 Br
ATOM     20  C   UNL d   1      14.623  -3.816  11.233  0.00  0.00     0.050 A 
ATOM     21 BR   UNL d   1      14.225  -4.411   9.448  0.00  0.00    -0.048 Br
ATOM     22  C   UNL d   1      14.575  -4.731  12.284  0.00  0.00     0.065 A 
ATOM     23 BR   UNL d   1      14.128  -6.575  12.025  0.00  0.00    -0.046 Br
ENDBRANCH   1  13
TORSDOF 2
ENDMDL
MODEL 2
REMARK VINA RESULT:      -5.7      0.062      6.563
REMARK  2 active torsions:
REMARK  status: ('A' for Active; 'I' for Inactive)
REMARK    1  A    between atoms: O_11  and  C_12 
REMARK    2  A    between atoms: O_11  and  C_13 
ROOT
ATOM      1  O   UNL d   1      14.800  -5.256  14.593  0.00  0.00    -0.305 OA
ENDROOT
BRANCH   1   2
ATOM      2  C   UNL d   1      14.847  -4.345  13.554  0.00  0.00     0.113 A 
ATOM      3  C   UNL d   1      15.169  -3.023  13.820  0.00  0.00     0.065 A 
ATOM      4 BR   UNL d   1      15.533  -2.532  15.636  0.00  0.00    -0.046 Br
ATOM      5  C   UNL d   1      15.213  -2.103  12.772  0.00  0.00     0.050 A 
ATOM      6 BR   UNL d   1      15.657  -0.270  13.145  0.00  0.00    -0.048 Br
ATOM      7  C   UNL d   1      14.936  -2.517  11.469  0.00  0.00     0.048 A 
ATOM      8 BR   UNL d   1      14.995  -1.247  10.023  0.00  0.00    -0.048 Br
ATOM      9  C   UNL d   1      14.614  -3.849  11.215  0.00  0.00     0.050 A 
ATOM     10 BR   UNL d   1      14.228  -4.441   9.426  0.00  0.00    -0.048 Br
ATOM     11  C   UNL d   1      14.568  -4.769  12.263  0.00  0.00     0.065 A 
ATOM     12 BR   UNL d   1      14.135  -6.614  11.995  0.00  0.00    -0.046 Br
ENDBRANCH   1   2
BRANCH   1  13
ATOM     13  C   UNL d   1      15.551  -6.391  14.471  0.00  0.00     0.113 A 
ATOM     14  C   UNL d   1      14.948  -7.643  14.595  0.00  0.00     0.065 A 
ATOM     15 BR   UNL d   1      13.064  -7.685  14.936  0.00  0.00    -0.046 Br
ATOM     16  C   UNL d   1      15.715  -8.801  14.473  0.00  0.00     0.050 A 
ATOM     17 BR   UNL d   1      14.864 -10.516  14.650  0.00  0.00    -0.048 Br
ATOM     18  C   UNL d   1      17.084  -8.708  14.227  0.00  0.00     0.048 A 
ATOM     19 BR   UNL d   1      18.143 -10.308  14.061  0.00  0.00    -0.048 Br
ATOM     20  C   UNL d   1      17.687  -7.457  14.103  0.00  0.00     0.050 A 
ATOM     21 BR   UNL d   1      19.574  -7.307  13.764  0.00  0.00    -0.048 Br
ATOM     22  C   UNL d   1      16.921  -6.299  14.226  0.00  0.00     0.065 A 
ATOM     23 BR   UNL d   1      17.674  -4.545  14.068  0.00  0.00    -0.046 Br
ENDBRANCH   1  13
TORSDOF 2
ENDMDL
MODEL 3
REMARK VINA RESULT:      -5.6      0.063      2.585
REMARK  2 active torsions:
REMARK  status: ('A' for Active; 'I' for Inactive)
REMARK    1  A    between atoms: O_11  and  C_12 
REMARK    2  A    between atoms: O_11  and  C_13 
ROOT
ATOM      1  O   UNL d   1      14.798  -5.258  14.595  0.00  0.00    -0.305 OA
ENDROOT
BRANCH   1   2
ATOM      2  C   UNL d   1      15.560  -6.405  14.472  0.00  0.00     0.113 A 
ATOM      3  C   UNL d   1      14.951  -7.645  14.599  0.00  0.00     0.065 A 
ATOM      4 BR   UNL d   1      13.068  -7.692  14.944  0.00  0.00    -0.046 Br
ATOM      5  C   UNL d   1      15.721  -8.803  14.477  0.00  0.00     0.050 A 
ATOM      6 BR   UNL d   1      14.874 -10.520  14.657  0.00  0.00    -0.048 Br
ATOM      7  C   UNL d   1      17.090  -8.707  14.229  0.00  0.00     0.048 A 
ATOM      8 BR   UNL d   1      18.151 -10.305  14.063  0.00  0.00    -0.048 Br
ATOM      9  C   UNL d   1      17.689  -7.455  14.103  0.00  0.00     0.050 A 
ATOM     10 BR   UNL d   1      19.575  -7.301  13.760  0.00  0.00    -0.048 Br
ATOM     11  C   UNL d   1      16.921  -6.297  14.225  0.00  0.00     0.065 A 
ATOM     12 BR   UNL d   1      17.670  -4.543  14.065  0.00  0.00    -0.046 Br
ENDBRANCH   1   2
BRANCH   1  13
ATOM     13  C   UNL d   1      14.842  -4.359  13.568  0.00  0.00     0.113 A 
ATOM     14  C   UNL d   1      14.568  -4.774  12.264  0.00  0.00     0.065 A 
ATOM     15 BR   UNL d   1      14.139  -6.622  11.999  0.00  0.00    -0.046 Br
ATOM     16  C   UNL d   1      14.615  -3.856  11.215  0.00  0.00     0.050 A 
ATOM     17 BR   UNL d   1      14.237  -4.451   9.426  0.00  0.00    -0.048 Br
ATOM     18  C   UNL d   1      14.937  -2.523  11.469  0.00  0.00     0.048 A 
ATOM     19 BR   UNL d   1      15.005  -1.257  10.020  0.00  0.00    -0.048 Br
ATOM     20  C   UNL d   1      15.211  -2.108  12.772  0.00  0.00     0.050 A 
ATOM     21 BR   UNL d   1      15.656  -0.274  13.143  0.00  0.00    -0.048 Br
ATOM     22  C   UNL d   1      15.164  -3.025  13.821  0.00  0.00     0.065 A 
ATOM     23 BR   UNL d   1      15.526  -2.533  15.636  0.00  0.00    -0.046 Br
ENDBRANCH   1  13
TORSDOF 2
ENDMDL
MODEL 4
REMARK VINA RESULT:      -5.6      0.068      6.015
REMARK  2 active torsions:
REMARK  status: ('A' for Active; 'I' for Inactive)
REMARK    1  A    between atoms: O_11  and  C_12 
REMARK    2  A    between atoms: O_11  and  C_13 
ROOT
ATOM      1  O   UNL d   1      14.799  -5.259  14.592  0.00  0.00    -0.305 OA
ENDROOT
BRANCH   1   2
ATOM      2  C   UNL d   1      14.844  -4.348  13.553  0.00  0.00     0.113 A 
ATOM      3  C   UNL d   1      14.573  -4.773  12.261  0.00  0.00     0.065 A 
ATOM      4 BR   UNL d   1      14.150  -6.622  11.992  0.00  0.00    -0.046 Br
ATOM      5  C   UNL d   1      14.620  -3.854  11.213  0.00  0.00     0.050 A 
ATOM      6 BR   UNL d   1      14.248  -4.448   9.422  0.00  0.00    -0.048 Br
ATOM      7  C   UNL d   1      14.937  -2.521  11.468  0.00  0.00     0.048 A 
ATOM      8 BR   UNL d   1      15.005  -1.253  10.021  0.00  0.00    -0.048 Br
ATOM      9  C   UNL d   1      15.207  -2.106  12.772  0.00  0.00     0.050 A 
ATOM     10 BR   UNL d   1      15.646  -0.271  13.146  0.00  0.00    -0.048 Br
ATOM     11  C   UNL d   1      15.160  -3.025  13.821  0.00  0.00     0.065 A 
ATOM     12 BR   UNL d   1      15.517  -2.533  15.636  0.00  0.00    -0.046 Br
ENDBRANCH   1   2
BRANCH   1  13
ATOM     13  C   UNL d   1      15.553  -6.392  14.470  0.00  0.00     0.113 A 
ATOM     14  C   UNL d   1      16.921  -6.297  14.218  0.00  0.00     0.065 A 
ATOM     15 BR   UNL d   1      17.669  -4.541  14.058  0.00  0.00    -0.046 Br
ATOM     16  C   UNL d   1      17.690  -7.454  14.091  0.00  0.00     0.050 A 
ATOM     17 BR   UNL d   1      19.574  -7.299  13.741  0.00  0.00    -0.048 Br
ATOM     18  C   UNL d   1      17.090  -8.707  14.215  0.00  0.00     0.048 A 
ATOM     19 BR   UNL d   1      18.150 -10.303  14.035  0.00  0.00    -0.048 Br
ATOM     20  C   UNL d   1      15.722  -8.802  14.466  0.00  0.00     0.050 A 
ATOM     21 BR   UNL d   1      14.875 -10.520  14.640  0.00  0.00    -0.048 Br
ATOM     22  C   UNL d   1      14.953  -7.646  14.593  0.00  0.00     0.065 A 
ATOM     23 BR   UNL d   1      13.070  -7.694  14.939  0.00  0.00    -0.046 Br
ENDBRANCH   1  13
TORSDOF 2
ENDMDL
MODEL 5
REMARK VINA RESULT:      -5.6      0.067      3.655
REMARK  2 active torsions:
REMARK  status: ('A' for Active; 'I' for Inactive)
REMARK    1  A    between atoms: O_11  and  C_12 
REMARK    2  A    between atoms: O_11  and  C_13 
ROOT
ATOM      1  O   UNL d   1      14.795  -5.256  14.591  0.00  0.00    -0.305 OA
ENDROOT
BRANCH   1   2
ATOM      2  C   UNL d   1      15.556  -6.403  14.469  0.00  0.00     0.113 A 
ATOM      3  C   UNL d   1      16.917  -6.296  14.221  0.00  0.00     0.065 A 
ATOM      4 BR   UNL d   1      17.666  -4.540  14.059  0.00  0.00    -0.046 Br
ATOM      5  C   UNL d   1      17.685  -7.454  14.095  0.00  0.00     0.050 A 
ATOM      6 BR   UNL d   1      19.570  -7.300  13.747  0.00  0.00    -0.048 Br
ATOM      7  C   UNL d   1      17.084  -8.706  14.219  0.00  0.00     0.048 A 
ATOM      8 BR   UNL d   1      18.143 -10.303  14.042  0.00  0.00    -0.048 Br
ATOM      9  C   UNL d   1      15.715  -8.800  14.468  0.00  0.00     0.050 A 
ATOM     10 BR   UNL d   1      14.867 -10.518  14.643  0.00  0.00    -0.048 Br
ATOM     11  C   UNL d   1      14.946  -7.643  14.594  0.00  0.00     0.065 A 
ATOM     12 BR   UNL d   1      13.064  -7.690  14.937  0.00  0.00    -0.046 Br
ENDBRANCH   1   2
BRANCH   1  13
ATOM     13  C   UNL d   1      14.840  -4.356  13.564  0.00  0.00     0.113 A 
ATOM     14  C   UNL d   1      14.569  -4.770  12.260  0.00  0.00     0.065 A 
ATOM     15 BR   UNL d   1      14.140  -6.618  11.992  0.00  0.00    -0.046 Br
ATOM     16  C   UNL d   1      14.619  -3.852  11.212  0.00  0.00     0.050 A 
ATOM     17 BR   UNL d   1      14.244  -4.445   9.422  0.00  0.00    -0.048 Br
ATOM     18  C   UNL d   1      14.940  -2.519  11.467  0.00  0.00     0.048 A 
ATOM     19 BR   UNL d   1      15.012  -1.252  10.020  0.00  0.00    -0.048 Br
ATOM     20  C   UNL d   1      15.211  -2.105  12.771  0.00  0.00     0.050 A 
ATOM     21 BR   UNL d   1      15.656  -0.271  13.144  0.00  0.00    -0.048 Br
ATOM     22  C   UNL d   1      15.163  -3.023  13.819  0.00  0.00     0.065 A 
ATOM     23 BR   UNL d   1      15.521  -2.532  15.635  0.00  0.00    -0.046 Br
ENDBRANCH   1  13
TORSDOF 2
ENDMDL
MODEL 6
REMARK VINA RESULT:      -5.6      0.070      6.294
REMARK  2 active torsions:
REMARK  status: ('A' for Active; 'I' for Inactive)
REMARK    1  A    between atoms: O_11  and  C_12 
REMARK    2  A    between atoms: O_11  and  C_13 
ROOT
ATOM      1  O   UNL d   1      14.799  -5.259  14.591  0.00  0.00    -0.305 OA
ENDROOT
BRANCH   1   2
ATOM      2  C   UNL d   1      14.846  -4.348  13.553  0.00  0.00     0.113 A 
ATOM      3  C   UNL d   1      15.165  -3.025  13.820  0.00  0.00     0.065 A 
ATOM      4 BR   UNL d   1      15.524  -2.535  15.636  0.00  0.00    -0.046 Br
ATOM      5  C   UNL d   1      15.209  -2.105  12.771  0.00  0.00     0.050 A 
ATOM      6 BR   UNL d   1      15.648  -0.271  13.146  0.00  0.00    -0.048 Br
ATOM      7  C   UNL d   1      14.935  -2.519  11.468  0.00  0.00     0.048 A 
ATOM      8 BR   UNL d   1      14.994  -1.249  10.023  0.00  0.00    -0.048 Br
ATOM      9  C   UNL d   1      14.616  -3.852  11.213  0.00  0.00     0.050 A 
ATOM     10 BR   UNL d   1      14.235  -4.444   9.423  0.00  0.00    -0.048 Br
ATOM     11  C   UNL d   1      14.571  -4.773  12.261  0.00  0.00     0.065 A 
ATOM     12 BR   UNL d   1      14.142  -6.619  11.991  0.00  0.00    -0.046 Br
ENDBRANCH   1   2
BRANCH   1  13
ATOM     13  C   UNL d   1      15.550  -6.394  14.469  0.00  0.00     0.113 A 
ATOM     14  C   UNL d   1      16.919  -6.301  14.218  0.00  0.00     0.065 A 
ATOM     15 BR   UNL d   1      17.670  -4.546  14.058  0.00  0.00    -0.046 Br
ATOM     16  C   UNL d   1      17.685  -7.460  14.090  0.00  0.00     0.050 A 
ATOM     17 BR   UNL d   1      19.570  -7.308  13.741  0.00  0.00    -0.048 Br
ATOM     18  C   UNL d   1      17.083  -8.711  14.214  0.00  0.00     0.048 A 
ATOM     19 BR   UNL d   1      18.140 -10.310  14.035  0.00  0.00    -0.048 Br
ATOM     20  C   UNL d   1      15.714  -8.804  14.464  0.00  0.00     0.050 A 
ATOM     21 BR   UNL d   1      14.864 -10.520  14.638  0.00  0.00    -0.048 Br
ATOM     22  C   UNL d   1      14.948  -7.646  14.591  0.00  0.00     0.065 A 
ATOM     23 BR   UNL d   1      13.065  -7.691  14.937  0.00  0.00    -0.046 Br
ENDBRANCH   1  13
TORSDOF 2
ENDMDL
MODEL 7
REMARK VINA RESULT:      -5.6      0.166      2.589
REMARK  2 active torsions:
REMARK  status: ('A' for Active; 'I' for Inactive)
REMARK    1  A    between atoms: O_11  and  C_12 
REMARK    2  A    between atoms: O_11  and  C_13 
ROOT
ATOM      1  O   UNL d   1      14.774  -5.331  14.561  0.00  0.00    -0.305 OA
ENDROOT
BRANCH   1   2
ATOM      2  C   UNL d   1      15.525  -6.483  14.422  0.00  0.00     0.113 A 
ATOM      3  C   UNL d   1      16.882  -6.386  14.152  0.00  0.00     0.065 A 
ATOM      4 BR   UNL d   1      17.642  -4.636  13.985  0.00  0.00    -0.046 Br
ATOM      5  C   UNL d   1      17.638  -7.549  14.010  0.00  0.00     0.050 A 
ATOM      6 BR   UNL d   1      19.519  -7.410  13.632  0.00  0.00    -0.048 Br
ATOM      7  C   UNL d   1      17.029  -8.797  14.139  0.00  0.00     0.048 A 
ATOM      8 BR   UNL d   1      18.073 -10.402  13.940  0.00  0.00    -0.048 Br
ATOM      9  C   UNL d   1      15.664  -8.882  14.410  0.00  0.00     0.050 A 
ATOM     10 BR   UNL d   1      14.806 -10.593  14.593  0.00  0.00    -0.048 Br
ATOM     11  C   UNL d   1      14.907  -7.719  14.552  0.00  0.00     0.065 A 
ATOM     12 BR   UNL d   1      13.030  -7.752  14.926  0.00  0.00    -0.046 Br
ENDBRANCH   1   2
BRANCH   1  13
ATOM     13  C   UNL d   1      14.818  -4.423  13.540  0.00  0.00     0.113 A 
ATOM     14  C   UNL d   1      15.128  -3.089  13.805  0.00  0.00     0.065 A 
ATOM     15 BR   UNL d   1      15.481  -2.610  15.625  0.00  0.00    -0.046 Br
ATOM     16  C   UNL d   1      15.170  -2.163  12.763  0.00  0.00     0.050 A 
ATOM     17 BR   UNL d   1      15.598  -0.329  13.151  0.00  0.00    -0.048 Br
ATOM     18  C   UNL d   1      14.901  -2.570  11.457  0.00  0.00     0.048 A 
ATOM     19 BR   UNL d   1      14.956  -1.290  10.020  0.00  0.00    -0.048 Br
ATOM     20  C   UNL d   1      14.590  -3.903  11.192  0.00  0.00     0.050 A 
ATOM     21 BR   UNL d   1      14.216  -4.484   9.398  0.00  0.00    -0.048 Br
ATOM     22  C   UNL d   1      14.548  -4.830  12.233  0.00  0.00     0.065 A 
ATOM     23 BR   UNL d   1      14.130  -6.677  11.951  0.00  0.00    -0.046 Br
ENDBRANCH   1  13
TORSDOF 2
ENDMDL
MODEL 8
REMARK VINA RESULT:      -5.6      0.132      6.298
REMARK  2 active torsions:
REMARK  status: ('A' for Active; 'I' for Inactive)
REMARK    1  A    between atoms: O_11  and  C_12 
REMARK    2  A    between atoms: O_11  and  C_13 
ROOT
ATOM      1  O   UNL d   1      14.812  -5.183  14.630  0.00  0.00    -0.305 OA
ENDROOT
BRANCH   1   2
ATOM      2  C   UNL d   1      14.811  -4.269  13.593  0.00  0.00     0.113 A 
ATOM      3  C   UNL d   1      14.490  -4.691  12.312  0.00  0.00     0.065 A 
ATOM      4 BR   UNL d   1      14.063  -6.540  12.054  0.00  0.00    -0.046 Br
ATOM      5  C   UNL d   1      14.491  -3.769  11.265  0.00  0.00     0.050 A 
ATOM      6 BR   UNL d   1      14.049  -4.359   9.489  0.00  0.00    -0.048 Br
ATOM      7  C   UNL d   1      14.813  -2.434  11.512  0.00  0.00     0.048 A 
ATOM      8 BR   UNL d   1      14.817  -1.162  10.067  0.00  0.00    -0.048 Br
ATOM      9  C   UNL d   1      15.134  -2.023  12.804  0.00  0.00     0.050 A 
ATOM     10 BR   UNL d   1      15.581  -0.188  13.166  0.00  0.00    -0.048 Br
ATOM     11  C   UNL d   1      15.134  -2.945  13.852  0.00  0.00     0.065 A 
ATOM     12 BR   UNL d   1      15.562  -2.457  15.652  0.00  0.00    -0.046 Br
ENDBRANCH   1   2
BRANCH   1  13
ATOM     13  C   UNL d   1      15.600  -6.291  14.493  0.00  0.00     0.113 A 
ATOM     14  C   UNL d   1      15.037  -7.564  14.584  0.00  0.00     0.065 A 
ATOM     15 BR   UNL d   1      13.152  -7.674  14.902  0.00  0.00    -0.046 Br
ATOM     16  C   UNL d   1      15.843  -8.694  14.447  0.00  0.00     0.050 A 
ATOM     17 BR   UNL d   1      15.046 -10.439  14.579  0.00  0.00    -0.048 Br
ATOM     18  C   UNL d   1      17.211  -8.552  14.219  0.00  0.00     0.048 A 
ATOM     19 BR   UNL d   1      18.322 -10.113  14.033  0.00  0.00    -0.048 Br
ATOM     20  C   UNL d   1      17.774  -7.280  14.128  0.00  0.00     0.050 A 
ATOM     21 BR   UNL d   1      19.659  -7.062  13.814  0.00  0.00    -0.048 Br
ATOM     22  C   UNL d   1      16.970  -6.149  14.266  0.00  0.00     0.065 A 
ATOM     23 BR   UNL d   1      17.667  -4.370  14.152  0.00  0.00    -0.046 Br
ENDBRANCH   1  13
TORSDOF 2
ENDMDL
MODEL 9
REMARK VINA RESULT:      -5.0     23.613     26.444
REMARK  2 active torsions:
REMARK  status: ('A' for Active; 'I' for Inactive)
REMARK    1  A    between atoms: O_11  and  C_12 
REMARK    2  A    between atoms: O_11  and  C_13 
ROOT
ATOM      1  O   UNL d   1      -0.922  13.475  18.827  0.00  0.00    -0.305 OA
ENDROOT
BRANCH   1   2
ATOM      2  C   UNL d   1      -0.882  12.425  17.930  0.00  0.00     0.113 A 
ATOM      3  C   UNL d   1      -1.333  12.618  16.633  0.00  0.00     0.065 A 
ATOM      4 BR   UNL d   1      -1.995  14.351  16.159  0.00  0.00    -0.046 Br
ATOM      5  C   UNL d   1      -1.295  11.556  15.728  0.00  0.00     0.050 A 
ATOM      6 BR   UNL d   1      -1.925  11.826  13.932  0.00  0.00    -0.048 Br
ATOM      7  C   UNL d   1      -0.805  10.314  16.131  0.00  0.00     0.048 A 
ATOM      8 BR   UNL d   1      -0.754   8.849  14.883  0.00  0.00    -0.048 Br
ATOM      9  C   UNL d   1      -0.354  10.133  17.438  0.00  0.00     0.050 A 
ATOM     10 BR   UNL d   1       0.326   8.429  18.013  0.00  0.00    -0.048 Br
ATOM     11  C   UNL d   1      -0.392  11.194  18.343  0.00  0.00     0.065 A 
ATOM     12 BR   UNL d   1       0.209  11.025  20.152  0.00  0.00    -0.046 Br
ENDBRANCH   1   2
BRANCH   1  13
ATOM     13  C   UNL d   1      -2.128  14.085  19.030  0.00  0.00     0.113 A 
ATOM     14  C   UNL d   1      -3.257  13.320  19.323  0.00  0.00     0.065 A 
ATOM     15 BR   UNL d   1      -3.033  11.420  19.422  0.00  0.00    -0.046 Br
ATOM     16  C   UNL d   1      -4.488  13.942  19.528  0.00  0.00     0.050 A 
ATOM     17 BR   UNL d   1      -6.032  12.868  19.927  0.00  0.00    -0.048 Br
ATOM     18  C   UNL d   1      -4.591  15.330  19.440  0.00  0.00     0.048 A 
ATOM     19 BR   UNL d   1      -6.291  16.189  19.719  0.00  0.00    -0.048 Br
ATOM     20  C   UNL d   1      -3.462  16.096  19.147  0.00  0.00     0.050 A 
ATOM     21 BR   UNL d   1      -3.583  18.011  19.022  0.00  0.00    -0.048 Br
ATOM     22  C   UNL d   1      -2.231  15.474  18.942  0.00  0.00     0.065 A 
ATOM     23 BR   UNL d   1      -0.637  16.454  18.537  0.00  0.00    -0.046 Br
ENDBRANCH   1  13
TORSDOF 2
ENDMDL
