MODEL 1
REMARK VINA RESULT:      -4.6      0.000      0.000
REMARK  12 active torsions:
REMARK  status: ('A' for Active; 'I' for Inactive)
REMARK    1  A    between atoms: P_4  and  O_5 
REMARK    2  A    between atoms: P_4  and  O_6 
REMARK    3  A    between atoms: P_4  and  O_7 
REMARK    4  A    between atoms: O_5  and  C_9 
REMARK    5  A    between atoms: O_6  and  C_10 
REMARK    6  A    between atoms: O_7  and  C_11 
REMARK    7  A    between atoms: C_9  and  C_12 
REMARK    8  A    between atoms: C_10  and  C_13 
REMARK    9  A    between atoms: C_11  and  C_14 
REMARK   10  A    between atoms: C_12  and  C_15 
REMARK   11  A    between atoms: C_13  and  C_16 
REMARK   12  A    between atoms: C_14  and  C_17 
ROOT
ATOM      1  P   UNL d   1      14.991  -1.424  12.471  0.00  0.00     0.477 P 
ATOM      2  O   UNL d   1      14.720  -0.090  13.106  0.00  0.00    -0.227 OA
ENDROOT
BRANCH   1   3
ATOM      3  O   UNL d   1      14.883  -1.429  10.853  0.00  0.00    -0.292 OA
BRANCH   3   4
ATOM      4  C   UNL d   1      14.776  -0.205  10.144  0.00  0.00     0.181 C 
BRANCH   4   5
ATOM      5  C   UNL d   1      16.152   0.171   9.610  0.00  0.00     0.042 C 
BRANCH   5   6
ATOM      6  C   UNL d   1      16.653   1.518  10.114  0.00  0.00     0.116 C 
ATOM      7 CL   UNL d   1      17.652   1.352  11.576  0.00  0.00    -0.130 Cl
ENDBRANCH   5   6
ENDBRANCH   4   5
ENDBRANCH   3   4
ENDBRANCH   1   3
BRANCH   1   8
ATOM      8  O   UNL d   1      13.998  -2.612  12.946  0.00  0.00    -0.292 OA
BRANCH   8   9
ATOM      9  C   UNL d   1      14.315  -3.944  12.579  0.00  0.00     0.181 C 
BRANCH   9  10
ATOM     10  C   UNL d   1      14.581  -4.750  13.844  0.00  0.00     0.042 C 
BRANCH  10  11
ATOM     11  C   UNL d   1      15.426  -5.996  13.609  0.00  0.00     0.116 C 
ATOM     12 CL   UNL d   1      17.001  -5.604  12.883  0.00  0.00    -0.130 Cl
ENDBRANCH  10  11
ENDBRANCH   9  10
ENDBRANCH   8   9
ENDBRANCH   1   8
BRANCH   1  13
ATOM     13  O   UNL d   1      16.460  -2.033  12.780  0.00  0.00    -0.292 OA
BRANCH  13  14
ATOM     14  C   UNL d   1      17.225  -1.454  13.823  0.00  0.00     0.181 C 
BRANCH  14  15
ATOM     15  C   UNL d   1      17.989  -2.560  14.540  0.00  0.00     0.042 C 
BRANCH  15  16
ATOM     16  C   UNL d   1      17.254  -3.126  15.748  0.00  0.00     0.116 C 
ATOM     17 CL   UNL d   1      15.821  -2.161  16.168  0.00  0.00    -0.130 Cl
ENDBRANCH  15  16
ENDBRANCH  14  15
ENDBRANCH  13  14
ENDBRANCH   1  13
TORSDOF 12
ENDMDL
MODEL 2
REMARK VINA RESULT:      -4.2      1.319      5.325
REMARK  12 active torsions:
REMARK  status: ('A' for Active; 'I' for Inactive)
REMARK    1  A    between atoms: P_4  and  O_5 
REMARK    2  A    between atoms: P_4  and  O_6 
REMARK    3  A    between atoms: P_4  and  O_7 
REMARK    4  A    between atoms: O_5  and  C_9 
REMARK    5  A    between atoms: O_6  and  C_10 
REMARK    6  A    between atoms: O_7  and  C_11 
REMARK    7  A    between atoms: C_9  and  C_12 
REMARK    8  A    between atoms: C_10  and  C_13 
REMARK    9  A    between atoms: C_11  and  C_14 
REMARK   10  A    between atoms: C_12  and  C_15 
REMARK   11  A    between atoms: C_13  and  C_16 
REMARK   12  A    between atoms: C_14  and  C_17 
ROOT
ATOM      1  P   UNL d   1      15.384  -1.356  12.862  0.00  0.00     0.477 P 
ATOM      2  O   UNL d   1      15.114  -0.163  13.735  0.00  0.00    -0.227 OA
ENDROOT
BRANCH   1   3
ATOM      3  O   UNL d   1      16.652  -2.252  13.327  0.00  0.00    -0.292 OA
BRANCH   3   4
ATOM      4  C   UNL d   1      17.304  -1.978  14.557  0.00  0.00     0.181 C 
BRANCH   4   5
ATOM      5  C   UNL d   1      16.787  -2.950  15.610  0.00  0.00     0.042 C 
BRANCH   5   6
ATOM      6  C   UNL d   1      17.250  -4.385  15.395  0.00  0.00     0.116 C 
ATOM      7 CL   UNL d   1      18.995  -4.480  15.069  0.00  0.00    -0.130 Cl
ENDBRANCH   5   6
ENDBRANCH   4   5
ENDBRANCH   3   4
ENDBRANCH   1   3
BRANCH   1   8
ATOM      8  O   UNL d   1      15.685  -1.003  11.310  0.00  0.00    -0.292 OA
BRANCH   8   9
ATOM      9  C   UNL d   1      15.009   0.095  10.724  0.00  0.00     0.181 C 
BRANCH   9  10
ATOM     10  C   UNL d   1      16.029   0.972  10.007  0.00  0.00     0.042 C 
BRANCH  10  11
ATOM     11  C   UNL d   1      17.260   1.287  10.847  0.00  0.00     0.116 C 
ATOM     12 CL   UNL d   1      18.706   0.439  10.253  0.00  0.00    -0.130 Cl
ENDBRANCH  10  11
ENDBRANCH   9  10
ENDBRANCH   8   9
ENDBRANCH   1   8
BRANCH   1  13
ATOM     13  O   UNL d   1      14.158  -2.411  12.763  0.00  0.00    -0.292 OA
BRANCH  13  14
ATOM     14  C   UNL d   1      14.384  -3.650  12.113  0.00  0.00     0.181 C 
BRANCH  14  15
ATOM     15  C   UNL d   1      14.261  -4.769  13.139  0.00  0.00     0.042 C 
BRANCH  15  16
ATOM     16  C   UNL d   1      14.817  -6.103  12.658  0.00  0.00     0.116 C 
ATOM     17 CL   UNL d   1      16.552  -6.003  12.279  0.00  0.00    -0.130 Cl
ENDBRANCH  15  16
ENDBRANCH  14  15
ENDBRANCH  13  14
ENDBRANCH   1  13
TORSDOF 12
ENDMDL
MODEL 3
REMARK VINA RESULT:      -4.2      1.511      4.634
REMARK  12 active torsions:
REMARK  status: ('A' for Active; 'I' for Inactive)
REMARK    1  A    between atoms: P_4  and  O_5 
REMARK    2  A    between atoms: P_4  and  O_6 
REMARK    3  A    between atoms: P_4  and  O_7 
REMARK    4  A    between atoms: O_5  and  C_9 
REMARK    5  A    between atoms: O_6  and  C_10 
REMARK    6  A    between atoms: O_7  and  C_11 
REMARK    7  A    between atoms: C_9  and  C_12 
REMARK    8  A    between atoms: C_10  and  C_13 
REMARK    9  A    between atoms: C_11  and  C_14 
REMARK   10  A    between atoms: C_12  and  C_15 
REMARK   11  A    between atoms: C_13  and  C_16 
REMARK   12  A    between atoms: C_14  and  C_17 
ROOT
ATOM      1  P   UNL d   1      15.277  -1.386  12.785  0.00  0.00     0.477 P 
ATOM      2  O   UNL d   1      15.099  -0.143  13.610  0.00  0.00    -0.227 OA
ENDROOT
BRANCH   1   3
ATOM      3  O   UNL d   1      14.051  -2.442  12.895  0.00  0.00    -0.292 OA
BRANCH   3   4
ATOM      4  C   UNL d   1      14.315  -3.834  12.955  0.00  0.00     0.181 C 
BRANCH   4   5
ATOM      5  C   UNL d   1      14.001  -4.449  11.596  0.00  0.00     0.042 C 
BRANCH   5   6
ATOM      6  C   UNL d   1      15.116  -5.334  11.056  0.00  0.00     0.116 C 
ATOM      7 CL   UNL d   1      16.348  -5.683  12.290  0.00  0.00    -0.130 Cl
ENDBRANCH   5   6
ENDBRANCH   4   5
ENDBRANCH   3   4
ENDBRANCH   1   3
BRANCH   1   8
ATOM      8  O   UNL d   1      16.594  -2.256  13.149  0.00  0.00    -0.292 OA
BRANCH   8   9
ATOM      9  C   UNL d   1      17.386  -1.851  14.252  0.00  0.00     0.181 C 
BRANCH   9  10
ATOM     10  C   UNL d   1      18.106  -3.073  14.812  0.00  0.00     0.042 C 
BRANCH  10  11
ATOM     11  C   UNL d   1      17.172  -4.091  15.454  0.00  0.00     0.116 C 
ATOM     12 CL   UNL d   1      17.878  -5.723  15.471  0.00  0.00    -0.130 Cl
ENDBRANCH  10  11
ENDBRANCH   9  10
ENDBRANCH   8   9
ENDBRANCH   1   8
BRANCH   1  13
ATOM     13  O   UNL d   1      15.444  -1.123  11.195  0.00  0.00    -0.292 OA
BRANCH  13  14
ATOM     14  C   UNL d   1      15.430   0.215  10.727  0.00  0.00     0.181 C 
BRANCH  14  15
ATOM     15  C   UNL d   1      16.719   0.477   9.960  0.00  0.00     0.042 C 
BRANCH  15  16
ATOM     16  C   UNL d   1      17.934   0.677  10.857  0.00  0.00     0.116 C 
ATOM     17 CL   UNL d   1      19.457   0.360   9.996  0.00  0.00    -0.130 Cl
ENDBRANCH  15  16
ENDBRANCH  14  15
ENDBRANCH  13  14
ENDBRANCH   1  13
TORSDOF 12
ENDMDL
MODEL 4
REMARK VINA RESULT:      -4.1      2.047      2.369
REMARK  12 active torsions:
REMARK  status: ('A' for Active; 'I' for Inactive)
REMARK    1  A    between atoms: P_4  and  O_5 
REMARK    2  A    between atoms: P_4  and  O_6 
REMARK    3  A    between atoms: P_4  and  O_7 
REMARK    4  A    between atoms: O_5  and  C_9 
REMARK    5  A    between atoms: O_6  and  C_10 
REMARK    6  A    between atoms: O_7  and  C_11 
REMARK    7  A    between atoms: C_9  and  C_12 
REMARK    8  A    between atoms: C_10  and  C_13 
REMARK    9  A    between atoms: C_11  and  C_14 
REMARK   10  A    between atoms: C_12  and  C_15 
REMARK   11  A    between atoms: C_13  and  C_16 
REMARK   12  A    between atoms: C_14  and  C_17 
ROOT
ATOM      1  P   UNL d   1      15.342  -1.300  12.656  0.00  0.00     0.477 P 
ATOM      2  O   UNL d   1      14.992  -0.130  13.530  0.00  0.00    -0.227 OA
ENDROOT
BRANCH   1   3
ATOM      3  O   UNL d   1      15.729  -0.904  11.133  0.00  0.00    -0.292 OA
BRANCH   3   4
ATOM      4  C   UNL d   1      16.033   0.441  10.802  0.00  0.00     0.181 C 
BRANCH   4   5
ATOM      5  C   UNL d   1      17.437   0.762  11.300  0.00  0.00     0.042 C 
BRANCH   5   6
ATOM      6  C   UNL d   1      18.527   0.465  10.280  0.00  0.00     0.116 C 
ATOM      7 CL   UNL d   1      17.859   0.137   8.665  0.00  0.00    -0.130 Cl
ENDBRANCH   5   6
ENDBRANCH   4   5
ENDBRANCH   3   4
ENDBRANCH   1   3
BRANCH   1   8
ATOM      8  O   UNL d   1      14.166  -2.403  12.501  0.00  0.00    -0.292 OA
BRANCH   8   9
ATOM      9  C   UNL d   1      14.436  -3.737  12.896  0.00  0.00     0.181 C 
BRANCH   9  10
ATOM     10  C   UNL d   1      13.887  -4.682  11.833  0.00  0.00     0.042 C 
BRANCH  10  11
ATOM     11  C   UNL d   1      13.799  -4.057  10.447  0.00  0.00     0.116 C 
ATOM     12 CL   UNL d   1      12.704  -4.962   9.376  0.00  0.00    -0.130 Cl
ENDBRANCH  10  11
ENDBRANCH   9  10
ENDBRANCH   8   9
ENDBRANCH   1   8
BRANCH   1  13
ATOM     13  O   UNL d   1      16.599  -2.180  13.177  0.00  0.00    -0.292 OA
BRANCH  13  14
ATOM     14  C   UNL d   1      17.297  -1.743  14.331  0.00  0.00     0.181 C 
BRANCH  14  15
ATOM     15  C   UNL d   1      16.862  -2.594  15.517  0.00  0.00     0.042 C 
BRANCH  15  16
ATOM     16  C   UNL d   1      17.346  -4.036  15.444  0.00  0.00     0.116 C 
ATOM     17 CL   UNL d   1      19.083  -4.137  15.075  0.00  0.00    -0.130 Cl
ENDBRANCH  15  16
ENDBRANCH  14  15
ENDBRANCH  13  14
ENDBRANCH   1  13
TORSDOF 12
ENDMDL
MODEL 5
REMARK VINA RESULT:      -4.0      2.384      5.704
REMARK  12 active torsions:
REMARK  status: ('A' for Active; 'I' for Inactive)
REMARK    1  A    between atoms: P_4  and  O_5 
REMARK    2  A    between atoms: P_4  and  O_6 
REMARK    3  A    between atoms: P_4  and  O_7 
REMARK    4  A    between atoms: O_5  and  C_9 
REMARK    5  A    between atoms: O_6  and  C_10 
REMARK    6  A    between atoms: O_7  and  C_11 
REMARK    7  A    between atoms: C_9  and  C_12 
REMARK    8  A    between atoms: C_10  and  C_13 
REMARK    9  A    between atoms: C_11  and  C_14 
REMARK   10  A    between atoms: C_12  and  C_15 
REMARK   11  A    between atoms: C_13  and  C_16 
REMARK   12  A    between atoms: C_14  and  C_17 
ROOT
ATOM      1  P   UNL d   1      15.941  -2.663  15.022  0.00  0.00     0.477 P 
ATOM      2  O   UNL d   1      15.941  -2.349  16.491  0.00  0.00    -0.227 OA
ENDROOT
BRANCH   1   3
ATOM      3  O   UNL d   1      17.408  -2.968  14.404  0.00  0.00    -0.292 OA
BRANCH   3   4
ATOM      4  C   UNL d   1      18.495  -3.269  15.265  0.00  0.00     0.181 C 
BRANCH   4   5
ATOM      5  C   UNL d   1      19.247  -4.468  14.700  0.00  0.00     0.042 C 
BRANCH   5   6
ATOM      6  C   UNL d   1      18.341  -5.632  14.322  0.00  0.00     0.116 C 
ATOM      7 CL   UNL d   1      17.489  -6.300  15.732  0.00  0.00    -0.130 Cl
ENDBRANCH   5   6
ENDBRANCH   4   5
ENDBRANCH   3   4
ENDBRANCH   1   3
BRANCH   1   8
ATOM      8  O   UNL d   1      15.342  -1.489  14.081  0.00  0.00    -0.292 OA
BRANCH   8   9
ATOM      9  C   UNL d   1      16.241  -0.739  13.281  0.00  0.00     0.181 C 
BRANCH   9  10
ATOM     10  C   UNL d   1      15.499  -0.244  12.045  0.00  0.00     0.042 C 
BRANCH  10  11
ATOM     11  C   UNL d   1      16.419   0.123  10.888  0.00  0.00     0.116 C 
ATOM     12 CL   UNL d   1      17.682   1.274  11.380  0.00  0.00    -0.130 Cl
ENDBRANCH  10  11
ENDBRANCH   9  10
ENDBRANCH   8   9
ENDBRANCH   1   8
BRANCH   1  13
ATOM     13  O   UNL d   1      15.051  -3.951  14.607  0.00  0.00    -0.292 OA
BRANCH  13  14
ATOM     14  C   UNL d   1      15.017  -4.337  13.244  0.00  0.00     0.181 C 
BRANCH  14  15
ATOM     15  C   UNL d   1      13.998  -5.458  13.079  0.00  0.00     0.042 C 
BRANCH  15  16
ATOM     16  C   UNL d   1      14.273  -6.668  13.961  0.00  0.00     0.116 C 
ATOM     17 CL   UNL d   1      12.783  -7.321  14.679  0.00  0.00    -0.130 Cl
ENDBRANCH  15  16
ENDBRANCH  14  15
ENDBRANCH  13  14
ENDBRANCH   1  13
TORSDOF 12
ENDMDL
MODEL 6
REMARK VINA RESULT:      -3.9      2.032      4.726
REMARK  12 active torsions:
REMARK  status: ('A' for Active; 'I' for Inactive)
REMARK    1  A    between atoms: P_4  and  O_5 
REMARK    2  A    between atoms: P_4  and  O_6 
REMARK    3  A    between atoms: P_4  and  O_7 
REMARK    4  A    between atoms: O_5  and  C_9 
REMARK    5  A    between atoms: O_6  and  C_10 
REMARK    6  A    between atoms: O_7  and  C_11 
REMARK    7  A    between atoms: C_9  and  C_12 
REMARK    8  A    between atoms: C_10  and  C_13 
REMARK    9  A    between atoms: C_11  and  C_14 
REMARK   10  A    between atoms: C_12  and  C_15 
REMARK   11  A    between atoms: C_13  and  C_16 
REMARK   12  A    between atoms: C_14  and  C_17 
ROOT
ATOM      1  P   UNL d   1      15.425  -1.189  12.782  0.00  0.00     0.477 P 
ATOM      2  O   UNL d   1      15.093  -0.104  13.767  0.00  0.00    -0.227 OA
ENDROOT
BRANCH   1   3
ATOM      3  O   UNL d   1      14.222  -2.245  12.520  0.00  0.00    -0.292 OA
BRANCH   3   4
ATOM      4  C   UNL d   1      14.439  -3.632  12.715  0.00  0.00     0.181 C 
BRANCH   4   5
ATOM      5  C   UNL d   1      14.602  -4.297  11.354  0.00  0.00     0.042 C 
BRANCH   5   6
ATOM      6  C   UNL d   1      13.846  -3.591  10.237  0.00  0.00     0.116 C 
ATOM      7 CL   UNL d   1      13.347  -4.717   8.954  0.00  0.00    -0.130 Cl
ENDBRANCH   5   6
ENDBRANCH   4   5
ENDBRANCH   3   4
ENDBRANCH   1   3
BRANCH   1   8
ATOM      8  O   UNL d   1      16.691  -2.112  13.193  0.00  0.00    -0.292 OA
BRANCH   8   9
ATOM      9  C   UNL d   1      17.350  -1.845  14.419  0.00  0.00     0.181 C 
BRANCH   9  10
ATOM     10  C   UNL d   1      16.809  -2.794  15.482  0.00  0.00     0.042 C 
BRANCH  10  11
ATOM     11  C   UNL d   1      17.349  -4.214  15.366  0.00  0.00     0.116 C 
ATOM     12 CL   UNL d   1      19.110  -4.238  15.117  0.00  0.00    -0.130 Cl
ENDBRANCH  10  11
ENDBRANCH   9  10
ENDBRANCH   8   9
ENDBRANCH   1   8
BRANCH   1  13
ATOM     13  O   UNL d   1      15.827  -0.659  11.304  0.00  0.00    -0.292 OA
BRANCH  13  14
ATOM     14  C   UNL d   1      16.821   0.345  11.195  0.00  0.00     0.181 C 
BRANCH  14  15
ATOM     15  C   UNL d   1      17.466   0.246   9.818  0.00  0.00     0.042 C 
BRANCH  15  16
ATOM     16  C   UNL d   1      17.041   1.354   8.864  0.00  0.00     0.116 C 
ATOM     17 CL   UNL d   1      15.505   2.104   9.357  0.00  0.00    -0.130 Cl
ENDBRANCH  15  16
ENDBRANCH  14  15
ENDBRANCH  13  14
ENDBRANCH   1  13
TORSDOF 12
ENDMDL
MODEL 7
REMARK VINA RESULT:      -3.8      2.587      4.830
REMARK  12 active torsions:
REMARK  status: ('A' for Active; 'I' for Inactive)
REMARK    1  A    between atoms: P_4  and  O_5 
REMARK    2  A    between atoms: P_4  and  O_6 
REMARK    3  A    between atoms: P_4  and  O_7 
REMARK    4  A    between atoms: O_5  and  C_9 
REMARK    5  A    between atoms: O_6  and  C_10 
REMARK    6  A    between atoms: O_7  and  C_11 
REMARK    7  A    between atoms: C_9  and  C_12 
REMARK    8  A    between atoms: C_10  and  C_13 
REMARK    9  A    between atoms: C_11  and  C_14 
REMARK   10  A    between atoms: C_12  and  C_15 
REMARK   11  A    between atoms: C_13  and  C_16 
REMARK   12  A    between atoms: C_14  and  C_17 
ROOT
ATOM      1  P   UNL d   1      14.796  -4.025  12.712  0.00  0.00     0.477 P 
ATOM      2  O   UNL d   1      14.658  -4.567  11.318  0.00  0.00    -0.227 OA
ENDROOT
BRANCH   1   3
ATOM      3  O   UNL d   1      16.326  -3.775  13.184  0.00  0.00    -0.292 OA
BRANCH   3   4
ATOM      4  C   UNL d   1      17.022  -4.780  13.904  0.00  0.00     0.181 C 
BRANCH   4   5
ATOM      5  C   UNL d   1      17.196  -4.316  15.345  0.00  0.00     0.042 C 
BRANCH   5   6
ATOM      6  C   UNL d   1      17.298  -2.804  15.489  0.00  0.00     0.116 C 
ATOM      7 CL   UNL d   1      15.845  -2.105  16.240  0.00  0.00    -0.130 Cl
ENDBRANCH   5   6
ENDBRANCH   4   5
ENDBRANCH   3   4
ENDBRANCH   1   3
BRANCH   1   8
ATOM      8  O   UNL d   1      14.164  -4.967  13.868  0.00  0.00    -0.292 OA
BRANCH   8   9
ATOM      9  C   UNL d   1      13.680  -6.248  13.505  0.00  0.00     0.181 C 
BRANCH   9  10
ATOM     10  C   UNL d   1      13.469  -7.069  14.772  0.00  0.00     0.042 C 
BRANCH  10  11
ATOM     11  C   UNL d   1      12.674  -8.348  14.546  0.00  0.00     0.116 C 
ATOM     12 CL   UNL d   1      11.043  -8.252  15.248  0.00  0.00    -0.130 Cl
ENDBRANCH  10  11
ENDBRANCH   9  10
ENDBRANCH   8   9
ENDBRANCH   1   8
BRANCH   1  13
ATOM     13  O   UNL d   1      14.059  -2.603  12.959  0.00  0.00    -0.292 OA
BRANCH  13  14
ATOM     14  C   UNL d   1      14.831  -1.418  12.868  0.00  0.00     0.181 C 
BRANCH  14  15
ATOM     15  C   UNL d   1      14.910  -0.997  11.407  0.00  0.00     0.042 C 
BRANCH  15  16
ATOM     16  C   UNL d   1      15.737   0.261  11.178  0.00  0.00     0.116 C 
ATOM     17 CL   UNL d   1      17.042   0.428  12.374  0.00  0.00    -0.130 Cl
ENDBRANCH  15  16
ENDBRANCH  14  15
ENDBRANCH  13  14
ENDBRANCH   1  13
TORSDOF 12
ENDMDL
MODEL 8
REMARK VINA RESULT:      -3.8      1.671      5.504
REMARK  12 active torsions:
REMARK  status: ('A' for Active; 'I' for Inactive)
REMARK    1  A    between atoms: P_4  and  O_5 
REMARK    2  A    between atoms: P_4  and  O_6 
REMARK    3  A    between atoms: P_4  and  O_7 
REMARK    4  A    between atoms: O_5  and  C_9 
REMARK    5  A    between atoms: O_6  and  C_10 
REMARK    6  A    between atoms: O_7  and  C_11 
REMARK    7  A    between atoms: C_9  and  C_12 
REMARK    8  A    between atoms: C_10  and  C_13 
REMARK    9  A    between atoms: C_11  and  C_14 
REMARK   10  A    between atoms: C_12  and  C_15 
REMARK   11  A    between atoms: C_13  and  C_16 
REMARK   12  A    between atoms: C_14  and  C_17 
ROOT
ATOM      1  P   UNL d   1      15.151  -1.282  12.346  0.00  0.00     0.477 P 
ATOM      2  O   UNL d   1      14.791  -0.045  13.120  0.00  0.00    -0.227 OA
ENDROOT
BRANCH   1   3
ATOM      3  O   UNL d   1      14.073  -2.486  12.472  0.00  0.00    -0.292 OA
BRANCH   3   4
ATOM      4  C   UNL d   1      14.479  -3.829  12.260  0.00  0.00     0.181 C 
BRANCH   4   5
ATOM      5  C   UNL d   1      14.460  -4.562  13.596  0.00  0.00     0.042 C 
BRANCH   5   6
ATOM      6  C   UNL d   1      14.789  -6.044  13.482  0.00  0.00     0.116 C 
ATOM      7 CL   UNL d   1      16.204  -6.490  14.462  0.00  0.00    -0.130 Cl
ENDBRANCH   5   6
ENDBRANCH   4   5
ENDBRANCH   3   4
ENDBRANCH   1   3
BRANCH   1   8
ATOM      8  O   UNL d   1      16.562  -1.955  12.769  0.00  0.00    -0.292 OA
BRANCH   8   9
ATOM      9  C   UNL d   1      17.248  -1.436  13.895  0.00  0.00     0.181 C 
BRANCH   9  10
ATOM     10  C   UNL d   1      17.972  -2.579  14.596  0.00  0.00     0.042 C 
BRANCH  10  11
ATOM     11  C   UNL d   1      17.183  -3.186  15.750  0.00  0.00     0.116 C 
ATOM     12 CL   UNL d   1      15.732  -2.234  16.137  0.00  0.00    -0.130 Cl
ENDBRANCH  10  11
ENDBRANCH   9  10
ENDBRANCH   8   9
ENDBRANCH   1   8
BRANCH   1  13
ATOM     13  O   UNL d   1      15.320  -1.055  10.751  0.00  0.00    -0.292 OA
BRANCH  13  14
ATOM     14  C   UNL d   1      14.297  -0.364  10.055  0.00  0.00     0.181 C 
BRANCH  14  15
ATOM     15  C   UNL d   1      14.759  -0.116   8.625  0.00  0.00     0.042 C 
BRANCH  15  16
ATOM     16  C   UNL d   1      14.653  -1.342   7.728  0.00  0.00     0.116 C 
ATOM     17 CL   UNL d   1      16.173  -2.265   7.680  0.00  0.00    -0.130 Cl
ENDBRANCH  15  16
ENDBRANCH  14  15
ENDBRANCH  13  14
ENDBRANCH   1  13
TORSDOF 12
ENDMDL
MODEL 9
REMARK VINA RESULT:      -3.8      1.961      5.187
REMARK  12 active torsions:
REMARK  status: ('A' for Active; 'I' for Inactive)
REMARK    1  A    between atoms: P_4  and  O_5 
REMARK    2  A    between atoms: P_4  and  O_6 
REMARK    3  A    between atoms: P_4  and  O_7 
REMARK    4  A    between atoms: O_5  and  C_9 
REMARK    5  A    between atoms: O_6  and  C_10 
REMARK    6  A    between atoms: O_7  and  C_11 
REMARK    7  A    between atoms: C_9  and  C_12 
REMARK    8  A    between atoms: C_10  and  C_13 
REMARK    9  A    between atoms: C_11  and  C_14 
REMARK   10  A    between atoms: C_12  and  C_15 
REMARK   11  A    between atoms: C_13  and  C_16 
REMARK   12  A    between atoms: C_14  and  C_17 
ROOT
ATOM      1  P   UNL d   1      15.457  -2.417  14.412  0.00  0.00     0.477 P 
ATOM      2  O   UNL d   1      15.345  -2.519  15.907  0.00  0.00    -0.227 OA
ENDROOT
BRANCH   1   3
ATOM      3  O   UNL d   1      14.514  -3.455  13.599  0.00  0.00    -0.292 OA
BRANCH   3   4
ATOM      4  C   UNL d   1      14.989  -4.066  12.411  0.00  0.00     0.181 C 
BRANCH   4   5
ATOM      5  C   UNL d   1      14.413  -5.474  12.322  0.00  0.00     0.042 C 
BRANCH   5   6
ATOM      6  C   UNL d   1      13.880  -5.999  13.648  0.00  0.00     0.116 C 
ATOM      7 CL   UNL d   1      13.530  -7.741  13.585  0.00  0.00    -0.130 Cl
ENDBRANCH   5   6
ENDBRANCH   4   5
ENDBRANCH   3   4
ENDBRANCH   1   3
BRANCH   1   8
ATOM      8  O   UNL d   1      16.945  -2.678  13.827  0.00  0.00    -0.292 OA
BRANCH   8   9
ATOM      9  C   UNL d   1      18.055  -2.447  14.677  0.00  0.00     0.181 C 
BRANCH   9  10
ATOM     10  C   UNL d   1      18.646  -3.791  15.085  0.00  0.00     0.042 C 
BRANCH  10  11
ATOM     11  C   UNL d   1      18.036  -4.976  14.348  0.00  0.00     0.116 C 
ATOM     12 CL   UNL d   1      17.180  -6.078  15.450  0.00  0.00    -0.130 Cl
ENDBRANCH  10  11
ENDBRANCH   9  10
ENDBRANCH   8   9
ENDBRANCH   1   8
BRANCH   1  13
ATOM     13  O   UNL d   1      15.078  -0.964  13.804  0.00  0.00    -0.292 OA
BRANCH  13  14
ATOM     14  C   UNL d   1      15.835  -0.470  12.713  0.00  0.00     0.181 C 
BRANCH  14  15
ATOM     15  C   UNL d   1      14.883  -0.125  11.574  0.00  0.00     0.042 C 
BRANCH  15  16
ATOM     16  C   UNL d   1      15.550   0.621  10.426  0.00  0.00     0.116 C 
ATOM     17 CL   UNL d   1      17.113   1.322  10.906  0.00  0.00    -0.130 Cl
ENDBRANCH  15  16
ENDBRANCH  14  15
ENDBRANCH  13  14
ENDBRANCH   1  13
TORSDOF 12
ENDMDL
