MODEL 1
REMARK VINA RESULT:      -7.3      0.000      0.000
REMARK  6 active torsions:
REMARK  status: ('A' for Active; 'I' for Inactive)
REMARK    1  A    between atoms: N_8  and  C_18 
REMARK    2  A    between atoms: N_9  and  N_11 
REMARK       I    between atoms: N_9  and  C_22 
REMARK    3  A    between atoms: N_10  and  C_25 
REMARK       I    between atoms: N_11  and  C_27 
REMARK    4  A    between atoms: N_12  and  C_26 
REMARK       I    between atoms: N_12  and  C_27 
REMARK    5  A    between atoms: C_19  and  C_22 
REMARK    6  A    between atoms: C_28  and  C_33 
ROOT
ATOM      1  O   UNL d   1      19.888   8.343   8.321  0.00  0.00    -0.267 OA
ATOM      2  N   UNL d   1      17.731   7.840   7.622  0.00  0.00    -0.263 N 
ATOM      3  C   UNL d   1      18.790   8.684   7.891  0.00  0.00     0.260 C 
ATOM      4  H   UNL d   1      16.832   8.146   7.264  0.00  0.00     0.190 HD
ENDROOT
BRANCH   2   5
ATOM      5  N   UNL d   1      17.883   6.494   7.842  0.00  0.00    -0.248 N 
ATOM      6  C   UNL d   1      16.756   5.672   7.838  0.00  0.00     0.339 C 
ATOM      7  O   UNL d   1      15.617   6.092   7.644  0.00  0.00    -0.245 OA
ATOM      8  N   UNL d   1      17.125   4.346   8.078  0.00  0.00    -0.308 N 
ATOM      9  H   UNL d   1      18.117   4.168   8.217  0.00  0.00     0.170 HD
ATOM     10  H   UNL d   1      18.825   6.153   7.995  0.00  0.00     0.192 HD
BRANCH   8  11
ATOM     11  C   UNL d   1      16.286   3.210   8.152  0.00  0.00     0.037 A 
ATOM     12  C   UNL d   1      16.413   2.316   9.215  0.00  0.00     0.045 A 
ATOM     13  C   UNL d   1      15.585   1.196   9.287  0.00  0.00     0.050 A 
ATOM     14  C   UNL d   1      14.629   0.970   8.298  0.00  0.00     0.016 A 
ATOM     15  C   UNL d   1      14.500   1.865   7.235  0.00  0.00     0.003 A 
ATOM     16  C   UNL d   1      15.328   2.984   7.163  0.00  0.00     0.029 A 
BRANCH  13  17
ATOM     17  C   UNL d   1      15.723   0.240  10.424  0.00  0.00     0.417 C 
ATOM     18  F   UNL d   1      16.943   0.288  11.036  0.00  0.00    -0.166 F 
ATOM     19  F   UNL d   1      15.559  -1.068  10.061  0.00  0.00    -0.166 F 
ATOM     20  F   UNL d   1      14.807   0.462  11.411  0.00  0.00    -0.166 F 
ENDBRANCH  13  17
ENDBRANCH   8  11
ENDBRANCH   2   5
BRANCH   3  21
ATOM     21  C   UNL d   1      18.447  10.097   7.594  0.00  0.00     0.078 C 
ATOM     22  C   UNL d   1      17.841  10.855   8.520  0.00  0.00    -0.071 C 
ATOM     23  C   UNL d   1      17.466  12.292   8.286  0.00  0.00     0.054 C 
ATOM     24  C   UNL d   1      17.457  10.339   9.878  0.00  0.00     0.054 C 
ATOM     25  C   UNL d   1      15.978  12.510   8.562  0.00  0.00     0.127 C 
ATOM     26  N   UNL d   1      15.608  11.979   9.886  0.00  0.00    -0.380 N 
ATOM     27  C   UNL d   1      15.969  10.578  10.149  0.00  0.00     0.127 C 
BRANCH  26  28
ATOM     28  C   UNL d   1      14.484  12.530  10.510  0.00  0.00     0.030 A 
ATOM     29  C   UNL d   1      13.231  11.941  10.337  0.00  0.00     0.032 A 
ATOM     30  C   UNL d   1      12.110  12.488  10.959  0.00  0.00     0.038 A 
ATOM     31  C   UNL d   1      12.242  13.628  11.755  0.00  0.00     0.103 A 
ATOM     32  C   UNL d   1      13.493  14.217  11.928  0.00  0.00     0.038 A 
ATOM     33  C   UNL d   1      14.615  13.668  11.306  0.00  0.00     0.032 A 
BRANCH  31  34
ATOM     34  N   UNL d   1      11.100  14.187  12.388  0.00  0.00    -0.116 N 
ATOM     35  O   UNL d   1      11.130  15.389  12.745  0.00  0.00    -0.532 OA
ATOM     36  O   UNL d   1      10.092  13.463  12.575  0.00  0.00    -0.532 OA
ENDBRANCH  31  34
ENDBRANCH  26  28
ENDBRANCH   3  21
TORSDOF 6
ENDMDL
MODEL 2
REMARK VINA RESULT:      -7.2      5.480     11.438
REMARK  6 active torsions:
REMARK  status: ('A' for Active; 'I' for Inactive)
REMARK    1  A    between atoms: N_8  and  C_18 
REMARK    2  A    between atoms: N_9  and  N_11 
REMARK       I    between atoms: N_9  and  C_22 
REMARK    3  A    between atoms: N_10  and  C_25 
REMARK       I    between atoms: N_11  and  C_27 
REMARK    4  A    between atoms: N_12  and  C_26 
REMARK       I    between atoms: N_12  and  C_27 
REMARK    5  A    between atoms: C_19  and  C_22 
REMARK    6  A    between atoms: C_28  and  C_33 
ROOT
ATOM      1  O   UNL d   1      17.286   2.589   6.467  0.00  0.00    -0.267 OA
ATOM      2  N   UNL d   1      15.175   3.535   6.679  0.00  0.00    -0.263 N 
ATOM      3  C   UNL d   1      16.080   2.492   6.672  0.00  0.00     0.260 C 
ATOM      4  H   UNL d   1      14.181   3.429   6.855  0.00  0.00     0.190 HD
ENDROOT
BRANCH   2   5
ATOM      5  N   UNL d   1      15.628   4.808   6.439  0.00  0.00    -0.248 N 
ATOM      6  C   UNL d   1      15.005   5.883   7.071  0.00  0.00     0.339 C 
ATOM      7  O   UNL d   1      14.058   5.753   7.844  0.00  0.00    -0.245 OA
ATOM      8  N   UNL d   1      15.614   7.083   6.696  0.00  0.00    -0.308 N 
ATOM      9  H   UNL d   1      16.392   7.013   6.044  0.00  0.00     0.170 HD
ATOM     10  H   UNL d   1      16.413   4.908   5.806  0.00  0.00     0.192 HD
BRANCH   8  11
ATOM     11  C   UNL d   1      15.283   8.394   7.112  0.00  0.00     0.037 A 
ATOM     12  C   UNL d   1      15.915   8.956   8.220  0.00  0.00     0.045 A 
ATOM     13  C   UNL d   1      15.588  10.248   8.629  0.00  0.00     0.050 A 
ATOM     14  C   UNL d   1      14.628  10.979   7.930  0.00  0.00     0.016 A 
ATOM     15  C   UNL d   1      13.995  10.418   6.821  0.00  0.00     0.003 A 
ATOM     16  C   UNL d   1      14.323   9.125   6.412  0.00  0.00     0.029 A 
BRANCH  13  17
ATOM     17  C   UNL d   1      16.265  10.848   9.816  0.00  0.00     0.417 C 
ATOM     18  F   UNL d   1      16.190  10.074  10.939  0.00  0.00    -0.166 F 
ATOM     19  F   UNL d   1      15.750  12.059  10.184  0.00  0.00    -0.166 F 
ATOM     20  F   UNL d   1      17.596  11.066   9.607  0.00  0.00    -0.166 F 
ENDBRANCH  13  17
ENDBRANCH   8  11
ENDBRANCH   2   5
BRANCH   3  21
ATOM     21  C   UNL d   1      15.414   1.194   6.951  0.00  0.00     0.078 C 
ATOM     22  C   UNL d   1      15.080   0.861   8.206  0.00  0.00    -0.071 C 
ATOM     23  C   UNL d   1      14.405  -0.435   8.558  0.00  0.00     0.054 C 
ATOM     24  C   UNL d   1      15.365   1.740   9.390  0.00  0.00     0.054 C 
ATOM     25  C   UNL d   1      15.203  -1.184   9.626  0.00  0.00     0.127 C 
ATOM     26  N   UNL d   1      15.497  -0.305  10.771  0.00  0.00    -0.380 N 
ATOM     27  C   UNL d   1      16.151   0.975  10.459  0.00  0.00     0.127 C 
BRANCH  26  28
ATOM     28  C   UNL d   1      15.733  -0.915  12.008  0.00  0.00     0.030 A 
ATOM     29  C   UNL d   1      16.970  -0.765  12.635  0.00  0.00     0.032 A 
ATOM     30  C   UNL d   1      17.206  -1.372  13.868  0.00  0.00     0.038 A 
ATOM     31  C   UNL d   1      16.204  -2.132  14.474  0.00  0.00     0.103 A 
ATOM     32  C   UNL d   1      14.968  -2.283  13.847  0.00  0.00     0.038 A 
ATOM     33  C   UNL d   1      14.732  -1.675  12.614  0.00  0.00     0.032 A 
BRANCH  31  34
ATOM     34  N   UNL d   1      16.444  -2.752  15.729  0.00  0.00    -0.116 N 
ATOM     35  O   UNL d   1      16.901  -3.920  15.753  0.00  0.00    -0.532 OA
ATOM     36  O   UNL d   1      16.191  -2.115  16.780  0.00  0.00    -0.532 OA
ENDBRANCH  31  34
ENDBRANCH  26  28
ENDBRANCH   3  21
TORSDOF 6
ENDMDL
MODEL 3
REMARK VINA RESULT:      -7.1      4.852      6.383
REMARK  6 active torsions:
REMARK  status: ('A' for Active; 'I' for Inactive)
REMARK    1  A    between atoms: N_8  and  C_18 
REMARK    2  A    between atoms: N_9  and  N_11 
REMARK       I    between atoms: N_9  and  C_22 
REMARK    3  A    between atoms: N_10  and  C_25 
REMARK       I    between atoms: N_11  and  C_27 
REMARK    4  A    between atoms: N_12  and  C_26 
REMARK       I    between atoms: N_12  and  C_27 
REMARK    5  A    between atoms: C_19  and  C_22 
REMARK    6  A    between atoms: C_28  and  C_33 
ROOT
ATOM      1  O   UNL d   1      16.559   3.057   7.495  0.00  0.00    -0.267 OA
ATOM      2  N   UNL d   1      14.713   1.923   8.331  0.00  0.00    -0.263 N 
ATOM      3  C   UNL d   1      15.360   2.799   7.482  0.00  0.00     0.260 C 
ATOM      4  H   UNL d   1      13.718   1.724   8.298  0.00  0.00     0.190 HD
ENDROOT
BRANCH   2   5
ATOM      5  N   UNL d   1      15.444   1.264   9.287  0.00  0.00    -0.248 N 
ATOM      6  C   UNL d   1      14.871   0.183   9.958  0.00  0.00     0.339 C 
ATOM      7  O   UNL d   1      13.731  -0.218   9.736  0.00  0.00    -0.245 OA
ATOM      8  N   UNL d   1      15.775  -0.345  10.883  0.00  0.00    -0.308 N 
ATOM      9  H   UNL d   1      16.684   0.108  10.939  0.00  0.00     0.170 HD
ATOM     10  H   UNL d   1      16.386   1.596   9.461  0.00  0.00     0.192 HD
BRANCH   8  11
ATOM     11  C   UNL d   1      15.584  -1.439  11.758  0.00  0.00     0.037 A 
ATOM     12  C   UNL d   1      16.186  -1.442  13.015  0.00  0.00     0.045 A 
ATOM     13  C   UNL d   1      15.997  -2.522  13.877  0.00  0.00     0.050 A 
ATOM     14  C   UNL d   1      15.205  -3.599  13.482  0.00  0.00     0.016 A 
ATOM     15  C   UNL d   1      14.601  -3.597  12.225  0.00  0.00     0.003 A 
ATOM     16  C   UNL d   1      14.791  -2.517  11.363  0.00  0.00     0.029 A 
BRANCH  13  17
ATOM     17  C   UNL d   1      16.642  -2.524  15.222  0.00  0.00     0.417 C 
ATOM     18  F   UNL d   1      17.913  -2.022  15.221  0.00  0.00    -0.166 F 
ATOM     19  F   UNL d   1      16.752  -3.769  15.774  0.00  0.00    -0.166 F 
ATOM     20  F   UNL d   1      15.955  -1.779  16.136  0.00  0.00    -0.166 F 
ENDBRANCH  13  17
ENDBRANCH   8  11
ENDBRANCH   2   5
BRANCH   3  21
ATOM     21  C   UNL d   1      14.415   3.416   6.517  0.00  0.00     0.078 C 
ATOM     22  C   UNL d   1      13.957   4.660   6.720  0.00  0.00    -0.071 C 
ATOM     23  C   UNL d   1      13.000   5.344   5.784  0.00  0.00     0.054 C 
ATOM     24  C   UNL d   1      14.337   5.487   7.915  0.00  0.00     0.054 C 
ATOM     25  C   UNL d   1      11.762   5.827   6.541  0.00  0.00     0.127 C 
ATOM     26  N   UNL d   1      12.147   6.618   7.723  0.00  0.00    -0.380 N 
ATOM     27  C   UNL d   1      13.089   5.979   8.655  0.00  0.00     0.127 C 
BRANCH  26  28
ATOM     28  C   UNL d   1      11.218   7.544   8.210  0.00  0.00     0.030 A 
ATOM     29  C   UNL d   1      10.150   7.112   8.998  0.00  0.00     0.032 A 
ATOM     30  C   UNL d   1       9.225   8.035   9.484  0.00  0.00     0.038 A 
ATOM     31  C   UNL d   1       9.366   9.390   9.181  0.00  0.00     0.103 A 
ATOM     32  C   UNL d   1      10.432   9.821   8.394  0.00  0.00     0.038 A 
ATOM     33  C   UNL d   1      11.359   8.898   7.908  0.00  0.00     0.032 A 
BRANCH  31  34
ATOM     34  N   UNL d   1       8.422  10.329   9.675  0.00  0.00    -0.116 N 
ATOM     35  O   UNL d   1       8.781  11.144  10.559  0.00  0.00    -0.532 OA
ATOM     36  O   UNL d   1       7.255  10.319   9.214  0.00  0.00    -0.532 OA
ENDBRANCH  31  34
ENDBRANCH  26  28
ENDBRANCH   3  21
TORSDOF 6
ENDMDL
MODEL 4
REMARK VINA RESULT:      -7.0      5.917     11.560
REMARK  6 active torsions:
REMARK  status: ('A' for Active; 'I' for Inactive)
REMARK    1  A    between atoms: N_8  and  C_18 
REMARK    2  A    between atoms: N_9  and  N_11 
REMARK       I    between atoms: N_9  and  C_22 
REMARK    3  A    between atoms: N_10  and  C_25 
REMARK       I    between atoms: N_11  and  C_27 
REMARK    4  A    between atoms: N_12  and  C_26 
REMARK       I    between atoms: N_12  and  C_27 
REMARK    5  A    between atoms: C_19  and  C_22 
REMARK    6  A    between atoms: C_28  and  C_33 
ROOT
ATOM      1  O   UNL d   1      14.316   2.339   5.907  0.00  0.00    -0.267 OA
ATOM      2  N   UNL d   1      14.705   3.848   7.629  0.00  0.00    -0.263 N 
ATOM      3  C   UNL d   1      14.985   2.740   6.854  0.00  0.00     0.260 C 
ATOM      4  H   UNL d   1      15.276   4.162   8.407  0.00  0.00     0.190 HD
ENDROOT
BRANCH   2   5
ATOM      5  N   UNL d   1      13.587   4.592   7.343  0.00  0.00    -0.248 N 
ATOM      6  C   UNL d   1      13.470   5.876   7.874  0.00  0.00     0.339 C 
ATOM      7  O   UNL d   1      14.325   6.388   8.594  0.00  0.00    -0.245 OA
ATOM      8  N   UNL d   1      12.269   6.460   7.465  0.00  0.00    -0.308 N 
ATOM      9  H   UNL d   1      11.671   5.897   6.865  0.00  0.00     0.170 HD
ATOM     10  H   UNL d   1      12.889   4.167   6.744  0.00  0.00     0.192 HD
BRANCH   8  11
ATOM     11  C   UNL d   1      11.774   7.747   7.783  0.00  0.00     0.037 A 
ATOM     12  C   UNL d   1      10.618   7.881   8.550  0.00  0.00     0.045 A 
ATOM     13  C   UNL d   1      10.132   9.150   8.863  0.00  0.00     0.050 A 
ATOM     14  C   UNL d   1      10.802  10.285   8.408  0.00  0.00     0.016 A 
ATOM     15  C   UNL d   1      11.959  10.152   7.642  0.00  0.00     0.003 A 
ATOM     16  C   UNL d   1      12.446   8.883   7.329  0.00  0.00     0.029 A 
BRANCH  13  17
ATOM     17  C   UNL d   1       8.894   9.292   9.683  0.00  0.00     0.417 C 
ATOM     18  F   UNL d   1       7.742   9.224   8.953  0.00  0.00    -0.166 F 
ATOM     19  F   UNL d   1       8.818  10.479  10.356  0.00  0.00    -0.166 F 
ATOM     20  F   UNL d   1       8.782   8.324  10.638  0.00  0.00    -0.166 F 
ENDBRANCH  13  17
ENDBRANCH   8  11
ENDBRANCH   2   5
BRANCH   3  21
ATOM     21  C   UNL d   1      16.227   2.063   7.306  0.00  0.00     0.078 C 
ATOM     22  C   UNL d   1      16.160   1.019   8.145  0.00  0.00    -0.071 C 
ATOM     23  C   UNL d   1      17.376   0.288   8.642  0.00  0.00     0.054 C 
ATOM     24  C   UNL d   1      14.865   0.489   8.693  0.00  0.00     0.054 C 
ATOM     25  C   UNL d   1      17.394   0.250  10.171  0.00  0.00     0.127 C 
ATOM     26  N   UNL d   1      16.111  -0.250  10.696  0.00  0.00    -0.380 N 
ATOM     27  C   UNL d   1      14.901   0.440  10.222  0.00  0.00     0.127 C 
BRANCH  26  28
ATOM     28  C   UNL d   1      16.118  -0.833  11.967  0.00  0.00     0.030 A 
ATOM     29  C   UNL d   1      17.270  -0.780  12.753  0.00  0.00     0.032 A 
ATOM     30  C   UNL d   1      17.278  -1.361  14.020  0.00  0.00     0.038 A 
ATOM     31  C   UNL d   1      16.133  -1.997  14.503  0.00  0.00     0.103 A 
ATOM     32  C   UNL d   1      14.982  -2.051  13.718  0.00  0.00     0.038 A 
ATOM     33  C   UNL d   1      14.974  -1.469  12.450  0.00  0.00     0.032 A 
BRANCH  31  34
ATOM     34  N   UNL d   1      16.141  -2.590  15.793  0.00  0.00    -0.116 N 
ATOM     35  O   UNL d   1      16.433  -3.805  15.902  0.00  0.00    -0.532 OA
ATOM     36  O   UNL d   1      15.855  -1.882  16.789  0.00  0.00    -0.532 OA
ENDBRANCH  31  34
ENDBRANCH  26  28
ENDBRANCH   3  21
TORSDOF 6
ENDMDL
MODEL 5
REMARK VINA RESULT:      -7.0      6.279     11.722
REMARK  6 active torsions:
REMARK  status: ('A' for Active; 'I' for Inactive)
REMARK    1  A    between atoms: N_8  and  C_18 
REMARK    2  A    between atoms: N_9  and  N_11 
REMARK       I    between atoms: N_9  and  C_22 
REMARK    3  A    between atoms: N_10  and  C_25 
REMARK       I    between atoms: N_11  and  C_27 
REMARK    4  A    between atoms: N_12  and  C_26 
REMARK       I    between atoms: N_12  and  C_27 
REMARK    5  A    between atoms: C_19  and  C_22 
REMARK    6  A    between atoms: C_28  and  C_33 
ROOT
ATOM      1  O   UNL d   1      13.477   1.954   6.226  0.00  0.00    -0.267 OA
ATOM      2  N   UNL d   1      14.348   3.845   7.256  0.00  0.00    -0.263 N 
ATOM      3  C   UNL d   1      14.374   2.531   6.834  0.00  0.00     0.260 C 
ATOM      4  H   UNL d   1      15.105   4.301   7.755  0.00  0.00     0.190 HD
ENDROOT
BRANCH   2   5
ATOM      5  N   UNL d   1      13.237   4.606   6.989  0.00  0.00    -0.248 N 
ATOM      6  C   UNL d   1      12.863   5.605   7.888  0.00  0.00     0.339 C 
ATOM      7  O   UNL d   1      13.484   5.846   8.922  0.00  0.00    -0.245 OA
ATOM      8  N   UNL d   1      11.715   6.258   7.434  0.00  0.00    -0.308 N 
ATOM      9  H   UNL d   1      11.326   5.933   6.553  0.00  0.00     0.170 HD
ATOM     10  H   UNL d   1      12.733   4.406   6.133  0.00  0.00     0.192 HD
BRANCH   8  11
ATOM     11  C   UNL d   1      11.020   7.324   8.051  0.00  0.00     0.037 A 
ATOM     12  C   UNL d   1      11.468   8.635   7.892  0.00  0.00     0.045 A 
ATOM     13  C   UNL d   1      10.781   9.686   8.500  0.00  0.00     0.050 A 
ATOM     14  C   UNL d   1       9.647   9.425   9.269  0.00  0.00     0.016 A 
ATOM     15  C   UNL d   1       9.198   8.114   9.428  0.00  0.00     0.003 A 
ATOM     16  C   UNL d   1       9.885   7.064   8.819  0.00  0.00     0.029 A 
BRANCH  13  17
ATOM     17  C   UNL d   1      11.261  11.088   8.330  0.00  0.00     0.417 C 
ATOM     18  F   UNL d   1      11.734  11.356   7.077  0.00  0.00    -0.166 F 
ATOM     19  F   UNL d   1      12.283  11.423   9.174  0.00  0.00    -0.166 F 
ATOM     20  F   UNL d   1      10.282  12.010   8.558  0.00  0.00    -0.166 F 
ENDBRANCH  13  17
ENDBRANCH   8  11
ENDBRANCH   2   5
BRANCH   3  21
ATOM     21  C   UNL d   1      15.648   1.867   7.207  0.00  0.00     0.078 C 
ATOM     22  C   UNL d   1      15.649   0.841   8.070  0.00  0.00    -0.071 C 
ATOM     23  C   UNL d   1      16.901   0.124   8.490  0.00  0.00     0.054 C 
ATOM     24  C   UNL d   1      14.400   0.317   8.721  0.00  0.00     0.054 C 
ATOM     25  C   UNL d   1      17.031   0.117  10.015  0.00  0.00     0.127 C 
ATOM     26  N   UNL d   1      15.792  -0.376  10.642  0.00  0.00    -0.380 N 
ATOM     27  C   UNL d   1      14.547   0.300  10.245  0.00  0.00     0.127 C 
BRANCH  26  28
ATOM     28  C   UNL d   1      15.895  -0.934  11.921  0.00  0.00     0.030 A 
ATOM     29  C   UNL d   1      14.821  -1.641  12.462  0.00  0.00     0.032 A 
ATOM     30  C   UNL d   1      14.924  -2.198  13.736  0.00  0.00     0.038 A 
ATOM     31  C   UNL d   1      16.101  -2.046  14.471  0.00  0.00     0.103 A 
ATOM     32  C   UNL d   1      17.174  -1.339  13.931  0.00  0.00     0.038 A 
ATOM     33  C   UNL d   1      17.071  -0.783  12.655  0.00  0.00     0.032 A 
BRANCH  31  34
ATOM     34  N   UNL d   1      16.205  -2.612  15.769  0.00  0.00    -0.116 N 
ATOM     35  O   UNL d   1      15.888  -1.916  16.763  0.00  0.00    -0.532 OA
ATOM     36  O   UNL d   1      16.614  -3.793  15.887  0.00  0.00    -0.532 OA
ENDBRANCH  31  34
ENDBRANCH  26  28
ENDBRANCH   3  21
TORSDOF 6
ENDMDL
MODEL 6
REMARK VINA RESULT:      -7.0      8.743     13.051
REMARK  6 active torsions:
REMARK  status: ('A' for Active; 'I' for Inactive)
REMARK    1  A    between atoms: N_8  and  C_18 
REMARK    2  A    between atoms: N_9  and  N_11 
REMARK       I    between atoms: N_9  and  C_22 
REMARK    3  A    between atoms: N_10  and  C_25 
REMARK       I    between atoms: N_11  and  C_27 
REMARK    4  A    between atoms: N_12  and  C_26 
REMARK       I    between atoms: N_12  and  C_27 
REMARK    5  A    between atoms: C_19  and  C_22 
REMARK    6  A    between atoms: C_28  and  C_33 
ROOT
ATOM      1  O   UNL d   1      17.506  -4.737  13.303  0.00  0.00    -0.267 OA
ATOM      2  N   UNL d   1      15.872  -4.266  14.885  0.00  0.00    -0.263 N 
ATOM      3  C   UNL d   1      16.878  -3.943  13.996  0.00  0.00     0.260 C 
ATOM      4  H   UNL d   1      15.366  -3.590  15.446  0.00  0.00     0.190 HD
ENDROOT
BRANCH   2   5
ATOM      5  N   UNL d   1      15.515  -5.583  15.031  0.00  0.00    -0.248 N 
ATOM      6  C   UNL d   1      14.428  -6.078  14.310  0.00  0.00     0.339 C 
ATOM      7  O   UNL d   1      13.763  -5.390  13.539  0.00  0.00    -0.245 OA
ATOM      8  N   UNL d   1      14.233  -7.431  14.599  0.00  0.00    -0.308 N 
ATOM      9  H   UNL d   1      14.878  -7.851  15.263  0.00  0.00     0.170 HD
ATOM     10  H   UNL d   1      16.071  -6.147  15.664  0.00  0.00     0.192 HD
BRANCH   8  11
ATOM     11  C   UNL d   1      13.242  -8.297  14.079  0.00  0.00     0.037 A 
ATOM     12  C   UNL d   1      12.003  -8.398  14.709  0.00  0.00     0.045 A 
ATOM     13  C   UNL d   1      11.027  -9.252  14.195  0.00  0.00     0.050 A 
ATOM     14  C   UNL d   1      11.291 -10.005  13.051  0.00  0.00     0.016 A 
ATOM     15  C   UNL d   1      12.530  -9.903  12.420  0.00  0.00     0.003 A 
ATOM     16  C   UNL d   1      13.506  -9.049  12.933  0.00  0.00     0.029 A 
BRANCH  13  17
ATOM     17  C   UNL d   1       9.702  -9.361  14.871  0.00  0.00     0.417 C 
ATOM     18  F   UNL d   1       9.385 -10.634  15.254  0.00  0.00    -0.166 F 
ATOM     19  F   UNL d   1       8.656  -8.954  14.091  0.00  0.00    -0.166 F 
ATOM     20  F   UNL d   1       9.626  -8.607  16.006  0.00  0.00    -0.166 F 
ENDBRANCH  13  17
ENDBRANCH   8  11
ENDBRANCH   2   5
BRANCH   3  21
ATOM     21  C   UNL d   1      17.128  -2.480  13.969  0.00  0.00     0.078 C 
ATOM     22  C   UNL d   1      16.328  -1.670  13.261  0.00  0.00    -0.071 C 
ATOM     23  C   UNL d   1      16.523  -0.181  13.190  0.00  0.00     0.054 C 
ATOM     24  C   UNL d   1      15.166  -2.171  12.450  0.00  0.00     0.054 C 
ATOM     25  C   UNL d   1      16.624   0.279  11.734  0.00  0.00     0.127 C 
ATOM     26  N   UNL d   1      15.492  -0.238  10.944  0.00  0.00    -0.380 N 
ATOM     27  C   UNL d   1      15.269  -1.691  10.999  0.00  0.00     0.127 C 
BRANCH  26  28
ATOM     28  C   UNL d   1      15.134   0.471   9.792  0.00  0.00     0.030 A 
ATOM     29  C   UNL d   1      14.258  -0.098   8.867  0.00  0.00     0.032 A 
ATOM     30  C   UNL d   1      13.900   0.608   7.720  0.00  0.00     0.038 A 
ATOM     31  C   UNL d   1      14.419   1.884   7.496  0.00  0.00     0.103 A 
ATOM     32  C   UNL d   1      15.295   2.452   8.419  0.00  0.00     0.038 A 
ATOM     33  C   UNL d   1      15.652   1.746   9.568  0.00  0.00     0.032 A 
BRANCH  31  34
ATOM     34  N   UNL d   1      14.056   2.603   6.326  0.00  0.00    -0.116 N 
ATOM     35  O   UNL d   1      14.676   2.382   5.259  0.00  0.00    -0.532 OA
ATOM     36  O   UNL d   1      13.125   3.442   6.393  0.00  0.00    -0.532 OA
ENDBRANCH  31  34
ENDBRANCH  26  28
ENDBRANCH   3  21
TORSDOF 6
ENDMDL
MODEL 7
REMARK VINA RESULT:      -7.0     11.050     17.834
REMARK  6 active torsions:
REMARK  status: ('A' for Active; 'I' for Inactive)
REMARK    1  A    between atoms: N_8  and  C_18 
REMARK    2  A    between atoms: N_9  and  N_11 
REMARK       I    between atoms: N_9  and  C_22 
REMARK    3  A    between atoms: N_10  and  C_25 
REMARK       I    between atoms: N_11  and  C_27 
REMARK    4  A    between atoms: N_12  and  C_26 
REMARK       I    between atoms: N_12  and  C_27 
REMARK    5  A    between atoms: C_19  and  C_22 
REMARK    6  A    between atoms: C_28  and  C_33 
ROOT
ATOM      1  O   UNL d   1      19.013  -6.216  15.068  0.00  0.00    -0.267 OA
ATOM      2  N   UNL d   1      16.871  -5.870  15.897  0.00  0.00    -0.263 N 
ATOM      3  C   UNL d   1      17.973  -6.634  15.569  0.00  0.00     0.260 C 
ATOM      4  H   UNL d   1      16.023  -6.239  16.313  0.00  0.00     0.190 HD
ENDROOT
BRANCH   2   5
ATOM      5  N   UNL d   1      16.905  -4.519  15.657  0.00  0.00    -0.248 N 
ATOM      6  C   UNL d   1      16.424  -4.031  14.442  0.00  0.00     0.339 C 
ATOM      7  O   UNL d   1      15.963  -4.754  13.562  0.00  0.00    -0.245 OA
ATOM      8  N   UNL d   1      16.546  -2.640  14.398  0.00  0.00    -0.308 N 
ATOM      9  H   UNL d   1      16.951  -2.194  15.218  0.00  0.00     0.170 HD
ATOM     10  H   UNL d   1      17.281  -3.928  16.389  0.00  0.00     0.192 HD
BRANCH   8  11
ATOM     11  C   UNL d   1      16.176  -1.767  13.349  0.00  0.00     0.037 A 
ATOM     12  C   UNL d   1      17.043  -0.753  12.945  0.00  0.00     0.045 A 
ATOM     13  C   UNL d   1      16.677   0.107  11.910  0.00  0.00     0.050 A 
ATOM     14  C   UNL d   1      15.443  -0.047  11.279  0.00  0.00     0.016 A 
ATOM     15  C   UNL d   1      14.575  -1.062  11.681  0.00  0.00     0.003 A 
ATOM     16  C   UNL d   1      14.942  -1.922  12.717  0.00  0.00     0.029 A 
BRANCH  13  17
ATOM     17  C   UNL d   1      17.605   1.193  11.479  0.00  0.00     0.417 C 
ATOM     18  F   UNL d   1      17.038   2.088  10.617  0.00  0.00    -0.166 F 
ATOM     19  F   UNL d   1      18.719   0.736  10.835  0.00  0.00    -0.166 F 
ATOM     20  F   UNL d   1      18.067   1.936  12.526  0.00  0.00    -0.166 F 
ENDBRANCH  13  17
ENDBRANCH   8  11
ENDBRANCH   2   5
BRANCH   3  21
ATOM     21  C   UNL d   1      17.759  -8.066  15.898  0.00  0.00     0.078 C 
ATOM     22  C   UNL d   1      16.845  -8.784  15.230  0.00  0.00    -0.071 C 
ATOM     23  C   UNL d   1      16.576 -10.236  15.513  0.00  0.00     0.054 C 
ATOM     24  C   UNL d   1      15.980  -8.205  14.146  0.00  0.00     0.054 C 
ATOM     25  C   UNL d   1      15.092 -10.461  15.806  0.00  0.00     0.127 C 
ATOM     26  N   UNL d   1      14.255  -9.868  14.748  0.00  0.00    -0.380 N 
ATOM     27  C   UNL d   1      14.499  -8.450  14.443  0.00  0.00     0.127 C 
BRANCH  26  28
ATOM     28  C   UNL d   1      12.975 -10.403  14.565  0.00  0.00     0.030 A 
ATOM     29  C   UNL d   1      12.804 -11.783  14.450  0.00  0.00     0.032 A 
ATOM     30  C   UNL d   1      11.529 -12.316  14.268  0.00  0.00     0.038 A 
ATOM     31  C   UNL d   1      10.422 -11.468  14.200  0.00  0.00     0.103 A 
ATOM     32  C   UNL d   1      10.592 -10.089  14.315  0.00  0.00     0.038 A 
ATOM     33  C   UNL d   1      11.868  -9.556  14.497  0.00  0.00     0.032 A 
BRANCH  31  34
ATOM     34  N   UNL d   1       9.123 -12.010  14.013  0.00  0.00    -0.116 N 
ATOM     35  O   UNL d   1       8.869 -12.630  12.953  0.00  0.00    -0.532 OA
ATOM     36  O   UNL d   1       8.263 -11.853  14.914  0.00  0.00    -0.532 OA
ENDBRANCH  31  34
ENDBRANCH  26  28
ENDBRANCH   3  21
TORSDOF 6
ENDMDL
MODEL 8
REMARK VINA RESULT:      -6.8      5.054     10.973
REMARK  6 active torsions:
REMARK  status: ('A' for Active; 'I' for Inactive)
REMARK    1  A    between atoms: N_8  and  C_18 
REMARK    2  A    between atoms: N_9  and  N_11 
REMARK       I    between atoms: N_9  and  C_22 
REMARK    3  A    between atoms: N_10  and  C_25 
REMARK       I    between atoms: N_11  and  C_27 
REMARK    4  A    between atoms: N_12  and  C_26 
REMARK       I    between atoms: N_12  and  C_27 
REMARK    5  A    between atoms: C_19  and  C_22 
REMARK    6  A    between atoms: C_28  and  C_33 
ROOT
ATOM      1  O   UNL d   1      16.690   3.813   5.446  0.00  0.00    -0.267 OA
ATOM      2  N   UNL d   1      14.719   4.796   6.183  0.00  0.00    -0.263 N 
ATOM      3  C   UNL d   1      15.535   3.732   5.853  0.00  0.00     0.260 C 
ATOM      4  H   UNL d   1      13.766   4.703   6.520  0.00  0.00     0.190 HD
ENDROOT
BRANCH   2   5
ATOM      5  N   UNL d   1      15.209   6.072   6.057  0.00  0.00    -0.248 N 
ATOM      6  C   UNL d   1      15.650   6.747   7.195  0.00  0.00     0.339 C 
ATOM      7  O   UNL d   1      15.624   6.256   8.321  0.00  0.00    -0.245 OA
ATOM      8  N   UNL d   1      16.108   8.022   6.852  0.00  0.00    -0.308 N 
ATOM      9  H   UNL d   1      16.060   8.272   5.868  0.00  0.00     0.170 HD
ATOM     10  H   UNL d   1      15.233   6.469   5.125  0.00  0.00     0.192 HD
BRANCH   8  11
ATOM     11  C   UNL d   1      16.635   9.016   7.710  0.00  0.00     0.037 A 
ATOM     12  C   UNL d   1      17.923   8.883   8.225  0.00  0.00     0.045 A 
ATOM     13  C   UNL d   1      18.441   9.864   9.070  0.00  0.00     0.050 A 
ATOM     14  C   UNL d   1      17.671  10.978   9.400  0.00  0.00     0.016 A 
ATOM     15  C   UNL d   1      16.382  11.112   8.885  0.00  0.00     0.003 A 
ATOM     16  C   UNL d   1      15.864  10.131   8.039  0.00  0.00     0.029 A 
BRANCH  13  17
ATOM     17  C   UNL d   1      19.820   9.720   9.622  0.00  0.00     0.417 C 
ATOM     18  F   UNL d   1      19.850   9.265  10.910  0.00  0.00    -0.166 F 
ATOM     19  F   UNL d   1      20.526  10.890   9.642  0.00  0.00    -0.166 F 
ATOM     20  F   UNL d   1      20.584   8.845   8.906  0.00  0.00    -0.166 F 
ENDBRANCH  13  17
ENDBRANCH   8  11
ENDBRANCH   2   5
BRANCH   3  21
ATOM     21  C   UNL d   1      14.841   2.435   6.052  0.00  0.00     0.078 C 
ATOM     22  C   UNL d   1      14.583   1.988   7.289  0.00  0.00    -0.071 C 
ATOM     23  C   UNL d   1      13.886   0.685   7.562  0.00  0.00     0.054 C 
ATOM     24  C   UNL d   1      14.984   2.735   8.530  0.00  0.00     0.054 C 
ATOM     25  C   UNL d   1      14.728  -0.192   8.490  0.00  0.00     0.127 C 
ATOM     26  N   UNL d   1      15.134   0.558   9.691  0.00  0.00    -0.380 N 
ATOM     27  C   UNL d   1      15.813   1.843   9.458  0.00  0.00     0.127 C 
BRANCH  26  28
ATOM     28  C   UNL d   1      15.433  -0.180  10.842  0.00  0.00     0.030 A 
ATOM     29  C   UNL d   1      14.674  -1.305  11.165  0.00  0.00     0.032 A 
ATOM     30  C   UNL d   1      14.972  -2.042  12.311  0.00  0.00     0.038 A 
ATOM     31  C   UNL d   1      16.028  -1.652  13.135  0.00  0.00     0.103 A 
ATOM     32  C   UNL d   1      16.786  -0.527  12.813  0.00  0.00     0.038 A 
ATOM     33  C   UNL d   1      16.488   0.209  11.666  0.00  0.00     0.032 A 
BRANCH  31  34
ATOM     34  N   UNL d   1      16.331  -2.401  14.303  0.00  0.00    -0.116 N 
ATOM     35  O   UNL d   1      15.428  -2.598  15.151  0.00  0.00    -0.532 OA
ATOM     36  O   UNL d   1      17.495  -2.845  14.457  0.00  0.00    -0.532 OA
ENDBRANCH  31  34
ENDBRANCH  26  28
ENDBRANCH   3  21
TORSDOF 6
ENDMDL
MODEL 9
REMARK VINA RESULT:      -6.8     16.438     17.959
REMARK  6 active torsions:
REMARK  status: ('A' for Active; 'I' for Inactive)
REMARK    1  A    between atoms: N_8  and  C_18 
REMARK    2  A    between atoms: N_9  and  N_11 
REMARK       I    between atoms: N_9  and  C_22 
REMARK    3  A    between atoms: N_10  and  C_25 
REMARK       I    between atoms: N_11  and  C_27 
REMARK    4  A    between atoms: N_12  and  C_26 
REMARK       I    between atoms: N_12  and  C_27 
REMARK    5  A    between atoms: C_19  and  C_22 
REMARK    6  A    between atoms: C_28  and  C_33 
ROOT
ATOM      1  O   UNL d   1       0.726   7.265  19.469  0.00  0.00    -0.267 OA
ATOM      2  N   UNL d   1      -0.670   5.943  18.167  0.00  0.00    -0.263 N 
ATOM      3  C   UNL d   1      -0.380   6.995  19.012  0.00  0.00     0.260 C 
ATOM      4  H   UNL d   1      -1.594   5.742  17.800  0.00  0.00     0.190 HD
ENDROOT
BRANCH   2   5
ATOM      5  N   UNL d   1       0.345   5.103  17.781  0.00  0.00    -0.248 N 
ATOM      6  C   UNL d   1       0.476   3.862  18.402  0.00  0.00     0.339 C 
ATOM      7  O   UNL d   1      -0.279   3.471  19.290  0.00  0.00    -0.245 OA
ATOM      8  N   UNL d   1       1.562   3.165  17.866  0.00  0.00    -0.308 N 
ATOM      9  H   UNL d   1       2.085   3.636  17.132  0.00  0.00     0.170 HD
ATOM     10  H   UNL d   1       0.960   5.429  17.044  0.00  0.00     0.192 HD
BRANCH   8  11
ATOM     11  C   UNL d   1       2.030   1.879  18.220  0.00  0.00     0.037 A 
ATOM     12  C   UNL d   1       3.359   1.529  17.983  0.00  0.00     0.045 A 
ATOM     13  C   UNL d   1       3.819   0.260  18.332  0.00  0.00     0.050 A 
ATOM     14  C   UNL d   1       2.951  -0.660  18.919  0.00  0.00     0.016 A 
ATOM     15  C   UNL d   1       1.621  -0.310  19.158  0.00  0.00     0.003 A 
ATOM     16  C   UNL d   1       1.161   0.959  18.809  0.00  0.00     0.029 A 
BRANCH  13  17
ATOM     17  C   UNL d   1       5.240  -0.114  18.077  0.00  0.00     0.417 C 
ATOM     18  F   UNL d   1       5.940   0.833  17.385  0.00  0.00    -0.166 F 
ATOM     19  F   UNL d   1       5.382  -1.262  17.350  0.00  0.00    -0.166 F 
ATOM     20  F   UNL d   1       5.944  -0.322  19.228  0.00  0.00    -0.166 F 
ENDBRANCH  13  17
ENDBRANCH   8  11
ENDBRANCH   2   5
BRANCH   3  21
ATOM     21  C   UNL d   1      -1.593   7.793  19.321  0.00  0.00     0.078 C 
ATOM     22  C   UNL d   1      -1.762   9.005  18.773  0.00  0.00    -0.071 C 
ATOM     23  C   UNL d   1      -2.966   9.866  19.042  0.00  0.00     0.054 C 
ATOM     24  C   UNL d   1      -0.757   9.636  17.851  0.00  0.00     0.054 C 
ATOM     25  C   UNL d   1      -2.538  11.245  19.547  0.00  0.00     0.127 C 
ATOM     26  N   UNL d   1      -1.535  11.842  18.647  0.00  0.00    -0.380 N 
ATOM     27  C   UNL d   1      -0.349  11.022  18.358  0.00  0.00     0.127 C 
BRANCH  26  28
ATOM     28  C   UNL d   1      -1.426  13.237  18.640  0.00  0.00     0.030 A 
ATOM     29  C   UNL d   1      -2.577  14.027  18.645  0.00  0.00     0.032 A 
ATOM     30  C   UNL d   1      -2.469  15.417  18.638  0.00  0.00     0.038 A 
ATOM     31  C   UNL d   1      -1.209  16.019  18.625  0.00  0.00     0.103 A 
ATOM     32  C   UNL d   1      -0.060  15.230  18.619  0.00  0.00     0.038 A 
ATOM     33  C   UNL d   1      -0.168  13.839  18.627  0.00  0.00     0.032 A 
BRANCH  31  34
ATOM     34  N   UNL d   1      -1.099  17.434  18.617  0.00  0.00    -0.116 N 
ATOM     35  O   UNL d   1      -1.176  18.044  17.523  0.00  0.00    -0.532 OA
ATOM     36  O   UNL d   1      -0.926  18.037  19.704  0.00  0.00    -0.532 OA
ENDBRANCH  31  34
ENDBRANCH  26  28
ENDBRANCH   3  21
TORSDOF 6
ENDMDL
