MODEL 1
REMARK VINA RESULT:      -5.9      0.000      0.000
REMARK  8 active torsions:
REMARK  status: ('A' for Active; 'I' for Inactive)
REMARK    1  A    between atoms: O_4  and  C_14 
REMARK    2  A    between atoms: O_4  and  C_18 
REMARK    3  A    between atoms: O_5  and  C_17 
REMARK    4  A    between atoms: O_7  and  C_23 
REMARK    5  A    between atoms: N_8  and  CA_10 
REMARK    6  A    between atoms: C_9  and  CA_10 
REMARK    7  A    between atoms: C_9  and  C_11 
REMARK    8  A    between atoms: CA_10  and  C_17 
ROOT
ATOM      1  I   UNL d   1      19.906  -6.725  14.314  0.00  0.00    -0.042 I 
ATOM      2  I   UNL d   1      13.813  -7.049  14.194  0.00  0.00    -0.042 I 
ATOM      3  C   UNL d   1      16.696  -3.832  14.368  0.00  0.00    -0.053 A 
ATOM      4  C   UNL d   1      15.525  -4.572  14.319  0.00  0.00     0.028 A 
ATOM      5  C   UNL d   1      17.938  -4.444  14.366  0.00  0.00     0.028 A 
ATOM      6  C   UNL d   1      16.845  -6.596  14.266  0.00  0.00     0.109 A 
ATOM      7  C   UNL d   1      18.013  -5.836  14.315  0.00  0.00     0.042 A 
ATOM      8  C   UNL d   1      15.601  -5.964  14.268  0.00  0.00     0.042 A 
ENDROOT
BRANCH   6   9
ATOM      9  O   UNL d   1      16.918  -7.959  14.214  0.00  0.00    -0.308 OA
BRANCH   9  10
ATOM     10  C   UNL d   1      16.617  -8.659  15.369  0.00  0.00     0.077 A 
ATOM     11  C   UNL d   1      16.130  -9.951  15.269  0.00  0.00     0.058 A 
ATOM     12  C   UNL d   1      15.827 -10.656  16.433  0.00  0.00     0.042 A 
ATOM     13  I   UNL d   1      15.093 -12.605  16.258  0.00  0.00    -0.042 I 
ATOM     14  C   UNL d   1      16.015 -10.057  17.680  0.00  0.00     0.082 A 
ATOM     15  C   UNL d   1      16.507  -8.755  17.761  0.00  0.00     0.040 A 
ATOM     16  C   UNL d   1      16.810  -8.051  16.596  0.00  0.00     0.040 A 
BRANCH  14  17
ATOM     17  O   UNL d   1      15.731 -10.712  18.842  0.00  0.00    -0.359 OA
ATOM     18  H   UNL d   1      15.013 -10.248  19.305  0.00  0.00     0.217 HD
ENDBRANCH  14  17
ENDBRANCH   9  10
ENDBRANCH   6   9
BRANCH   3  19
ATOM     19  C   UNL d   1      16.614  -2.324  14.423  0.00  0.00     0.085 C 
BRANCH  19  20
ATOM     20  CA  UNL d   1      16.326  -1.691  13.053  0.00  0.00     0.318 C 
BRANCH  20  21
ATOM     21  N   UNL d   1      17.237  -0.572  12.824  0.00  0.00     0.093 N 
ATOM     22  H1  UNL d   1      18.200  -0.901  12.865  0.00  0.00     0.314 HD
ATOM     23  H2  UNL d   1      17.144   0.109  13.578  0.00  0.00     0.314 HD
ENDBRANCH  20  21
BRANCH  20  24
ATOM     24  C   UNL d   1      14.918  -1.129  12.968  0.00  0.00     0.174 C 
ATOM     25  OXT UNL d   1      14.636  -0.003  12.580  0.00  0.00    -0.648 OA
BRANCH  24  26
ATOM     26  O   UNL d   1      13.976  -2.036  13.342  0.00  0.00    -0.775 OA
ATOM     27  H   UNL d   1      14.379  -2.832  13.748  0.00  0.00     0.167 HD
ENDBRANCH  24  26
ENDBRANCH  20  24
ENDBRANCH  19  20
ENDBRANCH   3  19
TORSDOF 8
ENDMDL
MODEL 2
REMARK VINA RESULT:      -5.8      3.050      4.957
REMARK  8 active torsions:
REMARK  status: ('A' for Active; 'I' for Inactive)
REMARK    1  A    between atoms: O_4  and  C_14 
REMARK    2  A    between atoms: O_4  and  C_18 
REMARK    3  A    between atoms: O_5  and  C_17 
REMARK    4  A    between atoms: O_7  and  C_23 
REMARK    5  A    between atoms: N_8  and  CA_10 
REMARK    6  A    between atoms: C_9  and  CA_10 
REMARK    7  A    between atoms: C_9  and  C_11 
REMARK    8  A    between atoms: CA_10  and  C_17 
ROOT
ATOM      1  I   UNL d   1      13.884  -3.897  10.026  0.00  0.00    -0.042 I 
ATOM      2  I   UNL d   1      15.745  -2.431  15.650  0.00  0.00    -0.042 I 
ATOM      3  C   UNL d   1      16.092  -0.605  11.748  0.00  0.00    -0.053 A 
ATOM      4  C   UNL d   1      16.178  -0.881  13.103  0.00  0.00     0.028 A 
ATOM      5  C   UNL d   1      15.441  -1.461  10.876  0.00  0.00     0.028 A 
ATOM      6  C   UNL d   1      14.937  -2.921  12.733  0.00  0.00     0.109 A 
ATOM      7  C   UNL d   1      14.859  -2.628  11.372  0.00  0.00     0.042 A 
ATOM      8  C   UNL d   1      15.596  -2.048  13.599  0.00  0.00     0.042 A 
ENDROOT
BRANCH   6   9
ATOM      9  O   UNL d   1      14.366  -4.063  13.220  0.00  0.00    -0.308 OA
BRANCH   9  10
ATOM     10  C   UNL d   1      15.193  -5.151  13.429  0.00  0.00     0.077 A 
ATOM     11  C   UNL d   1      14.754  -6.190  14.231  0.00  0.00     0.058 A 
ATOM     12  C   UNL d   1      15.589  -7.287  14.442  0.00  0.00     0.042 A 
ATOM     13  I   UNL d   1      14.904  -8.843  15.658  0.00  0.00    -0.042 I 
ATOM     14  C   UNL d   1      16.850  -7.328  13.847  0.00  0.00     0.082 A 
ATOM     15  C   UNL d   1      17.276  -6.273  13.041  0.00  0.00     0.040 A 
ATOM     16  C   UNL d   1      16.441  -5.176  12.831  0.00  0.00     0.040 A 
BRANCH  14  17
ATOM     17  O   UNL d   1      17.696  -8.382  14.027  0.00  0.00    -0.359 OA
ATOM     18  H   UNL d   1      17.235  -9.084  14.518  0.00  0.00     0.217 HD
ENDBRANCH  14  17
ENDBRANCH   9  10
ENDBRANCH   6   9
BRANCH   3  19
ATOM     19  C   UNL d   1      16.722   0.659  11.210  0.00  0.00     0.085 C 
BRANCH  19  20
ATOM     20  CA  UNL d   1      17.873   0.383  10.231  0.00  0.00     0.318 C 
BRANCH  20  21
ATOM     21  N   UNL d   1      19.102   0.999  10.726  0.00  0.00     0.093 N 
ATOM     22  H1  UNL d   1      19.172   1.954  10.376  0.00  0.00     0.314 HD
ATOM     23  H2  UNL d   1      19.912   0.506  10.349  0.00  0.00     0.314 HD
ENDBRANCH  20  21
BRANCH  20  24
ATOM     24  C   UNL d   1      17.611   0.978   8.859  0.00  0.00     0.174 C 
ATOM     25  OXT UNL d   1      16.502   1.132   8.363  0.00  0.00    -0.648 OA
BRANCH  24  26
ATOM     26  O   UNL d   1      18.755   1.365   8.235  0.00  0.00    -0.775 OA
ATOM     27  H   UNL d   1      18.991   0.761   7.499  0.00  0.00     0.167 HD
ENDBRANCH  24  26
ENDBRANCH  20  24
ENDBRANCH  19  20
ENDBRANCH   3  19
TORSDOF 8
ENDMDL
MODEL 3
REMARK VINA RESULT:      -5.8      3.056      4.803
REMARK  8 active torsions:
REMARK  status: ('A' for Active; 'I' for Inactive)
REMARK    1  A    between atoms: O_4  and  C_14 
REMARK    2  A    between atoms: O_4  and  C_18 
REMARK    3  A    between atoms: O_5  and  C_17 
REMARK    4  A    between atoms: O_7  and  C_23 
REMARK    5  A    between atoms: N_8  and  CA_10 
REMARK    6  A    between atoms: C_9  and  CA_10 
REMARK    7  A    between atoms: C_9  and  C_11 
REMARK    8  A    between atoms: CA_10  and  C_17 
ROOT
ATOM      1  I   UNL d   1      15.966  -2.439  15.708  0.00  0.00    -0.042 I 
ATOM      2  I   UNL d   1      13.895  -3.830  10.137  0.00  0.00    -0.042 I 
ATOM      3  C   UNL d   1      16.230  -0.596  11.806  0.00  0.00    -0.053 A 
ATOM      4  C   UNL d   1      15.532  -1.434  10.951  0.00  0.00     0.028 A 
ATOM      5  C   UNL d   1      16.352  -0.883  13.156  0.00  0.00     0.028 A 
ATOM      6  C   UNL d   1      15.054  -2.892  12.817  0.00  0.00     0.109 A 
ATOM      7  C   UNL d   1      15.759  -2.039  13.665  0.00  0.00     0.042 A 
ATOM      8  C   UNL d   1      14.940  -2.590  11.460  0.00  0.00     0.042 A 
ENDROOT
BRANCH   6   9
ATOM      9  O   UNL d   1      14.474  -4.025  13.315  0.00  0.00    -0.308 OA
BRANCH   9  10
ATOM     10  C   UNL d   1      15.274  -5.144  13.451  0.00  0.00     0.077 A 
ATOM     11  C   UNL d   1      14.851  -6.184  14.262  0.00  0.00     0.058 A 
ATOM     12  C   UNL d   1      15.658  -7.312  14.399  0.00  0.00     0.042 A 
ATOM     13  I   UNL d   1      14.997  -8.868  15.628  0.00  0.00    -0.042 I 
ATOM     14  C   UNL d   1      16.877  -7.384  13.723  0.00  0.00     0.082 A 
ATOM     15  C   UNL d   1      17.287  -6.328  12.911  0.00  0.00     0.040 A 
ATOM     16  C   UNL d   1      16.480  -5.199  12.774  0.00  0.00     0.040 A 
BRANCH  14  17
ATOM     17  O   UNL d   1      17.695  -8.470  13.830  0.00  0.00    -0.359 OA
ATOM     18  H   UNL d   1      18.617  -8.192  13.697  0.00  0.00     0.217 HD
ENDBRANCH  14  17
ENDBRANCH   9  10
ENDBRANCH   6   9
BRANCH   3  19
ATOM     19  C   UNL d   1      16.871   0.655  11.255  0.00  0.00     0.085 C 
BRANCH  19  20
ATOM     20  CA  UNL d   1      17.961   0.359  10.213  0.00  0.00     0.318 C 
BRANCH  20  21
ATOM     21  N   UNL d   1      19.226   0.954  10.638  0.00  0.00     0.093 N 
ATOM     22  H1  UNL d   1      19.328   1.877  10.219  0.00  0.00     0.314 HD
ATOM     23  H2  UNL d   1      20.005   0.400  10.280  0.00  0.00     0.314 HD
ENDBRANCH  20  21
BRANCH  20  24
ATOM     24  C   UNL d   1      17.632   0.957   8.857  0.00  0.00     0.174 C 
ATOM     25  OXT UNL d   1      16.524   0.946   8.336  0.00  0.00    -0.648 OA
BRANCH  24  26
ATOM     26  O   UNL d   1      18.709   1.553   8.280  0.00  0.00    -0.775 OA
ATOM     27  H   UNL d   1      18.480   2.425   7.894  0.00  0.00     0.167 HD
ENDBRANCH  24  26
ENDBRANCH  20  24
ENDBRANCH  19  20
ENDBRANCH   3  19
TORSDOF 8
ENDMDL
MODEL 4
REMARK VINA RESULT:      -5.7      0.983      2.318
REMARK  8 active torsions:
REMARK  status: ('A' for Active; 'I' for Inactive)
REMARK    1  A    between atoms: O_4  and  C_14 
REMARK    2  A    between atoms: O_4  and  C_18 
REMARK    3  A    between atoms: O_5  and  C_17 
REMARK    4  A    between atoms: O_7  and  C_23 
REMARK    5  A    between atoms: N_8  and  CA_10 
REMARK    6  A    between atoms: C_9  and  CA_10 
REMARK    7  A    between atoms: C_9  and  C_11 
REMARK    8  A    between atoms: CA_10  and  C_17 
ROOT
ATOM      1  I   UNL d   1      14.054  -6.430  13.289  0.00  0.00    -0.042 I 
ATOM      2  I   UNL d   1      20.036  -5.807  14.326  0.00  0.00    -0.042 I 
ATOM      3  C   UNL d   1      16.706  -3.078  13.933  0.00  0.00    -0.053 A 
ATOM      4  C   UNL d   1      17.966  -3.628  14.110  0.00  0.00     0.028 A 
ATOM      5  C   UNL d   1      15.597  -3.875  13.700  0.00  0.00     0.028 A 
ATOM      6  C   UNL d   1      17.013  -5.829  13.818  0.00  0.00     0.109 A 
ATOM      7  C   UNL d   1      15.752  -5.260  13.642  0.00  0.00     0.042 A 
ATOM      8  C   UNL d   1      18.120  -5.013  14.052  0.00  0.00     0.042 A 
ENDROOT
BRANCH   6   9
ATOM      9  O   UNL d   1      17.164  -7.185  13.763  0.00  0.00    -0.308 OA
BRANCH   9  10
ATOM     10  C   UNL d   1      16.779  -7.917  14.872  0.00  0.00     0.077 A 
ATOM     11  C   UNL d   1      16.188  -9.155  14.693  0.00  0.00     0.058 A 
ATOM     12  C   UNL d   1      15.800  -9.892  15.811  0.00  0.00     0.042 A 
ATOM     13  I   UNL d   1      14.908 -11.759  15.516  0.00  0.00    -0.042 I 
ATOM     14  C   UNL d   1      16.011  -9.380  17.092  0.00  0.00     0.082 A 
ATOM     15  C   UNL d   1      16.609  -8.130  17.253  0.00  0.00     0.040 A 
ATOM     16  C   UNL d   1      16.996  -7.393  16.134  0.00  0.00     0.040 A 
BRANCH  14  17
ATOM     17  O   UNL d   1      15.647 -10.068  18.211  0.00  0.00    -0.359 OA
ATOM     18  H   UNL d   1      16.310 -10.755  18.396  0.00  0.00     0.217 HD
ENDBRANCH  14  17
ENDBRANCH   9  10
ENDBRANCH   6   9
BRANCH   3  19
ATOM     19  C   UNL d   1      16.539  -1.578  13.996  0.00  0.00     0.085 C 
BRANCH  19  20
ATOM     20  CA  UNL d   1      16.754  -0.895  12.636  0.00  0.00     0.318 C 
BRANCH  20  21
ATOM     21  N   UNL d   1      17.529   0.330  12.815  0.00  0.00     0.093 N 
ATOM     22  H1  UNL d   1      17.113   0.894  13.554  0.00  0.00     0.314 HD
ATOM     23  H2  UNL d   1      17.476   0.900  11.969  0.00  0.00     0.314 HD
ENDBRANCH  20  21
BRANCH  20  24
ATOM     24  C   UNL d   1      15.442  -0.489  11.987  0.00  0.00     0.174 C 
ATOM     25  OXT UNL d   1      15.226  -0.495  10.782  0.00  0.00    -0.648 OA
BRANCH  24  26
ATOM     26  O   UNL d   1      14.498  -0.145  12.901  0.00  0.00    -0.775 OA
ATOM     27  H   UNL d   1      14.328   0.821  12.903  0.00  0.00     0.167 HD
ENDBRANCH  24  26
ENDBRANCH  20  24
ENDBRANCH  19  20
ENDBRANCH   3  19
TORSDOF 8
ENDMDL
MODEL 5
REMARK VINA RESULT:      -5.6      3.620      8.408
REMARK  8 active torsions:
REMARK  status: ('A' for Active; 'I' for Inactive)
REMARK    1  A    between atoms: O_4  and  C_14 
REMARK    2  A    between atoms: O_4  and  C_18 
REMARK    3  A    between atoms: O_5  and  C_17 
REMARK    4  A    between atoms: O_7  and  C_23 
REMARK    5  A    between atoms: N_8  and  CA_10 
REMARK    6  A    between atoms: C_9  and  CA_10 
REMARK    7  A    between atoms: C_9  and  C_11 
REMARK    8  A    between atoms: CA_10  and  C_17 
ROOT
ATOM      1  I   UNL d   1      15.657  -2.056  15.910  0.00  0.00    -0.042 I 
ATOM      2  I   UNL d   1      14.284  -4.178  10.354  0.00  0.00    -0.042 I 
ATOM      3  C   UNL d   1      16.450  -5.723  13.762  0.00  0.00    -0.053 A 
ATOM      4  C   UNL d   1      15.851  -5.566  12.522  0.00  0.00     0.028 A 
ATOM      5  C   UNL d   1      16.394  -4.726  14.722  0.00  0.00     0.028 A 
ATOM      6  C   UNL d   1      15.112  -3.365  13.192  0.00  0.00     0.109 A 
ATOM      7  C   UNL d   1      15.721  -3.539  14.435  0.00  0.00     0.042 A 
ATOM      8  C   UNL d   1      15.177  -4.379  12.236  0.00  0.00     0.042 A 
ENDROOT
BRANCH   6   9
ATOM      9  O   UNL d   1      14.452  -2.202  12.911  0.00  0.00    -0.308 OA
BRANCH   9  10
ATOM     10  C   UNL d   1      15.151  -1.219  12.235  0.00  0.00     0.077 A 
ATOM     11  C   UNL d   1      14.707  -0.808  10.990  0.00  0.00     0.058 A 
ATOM     12  C   UNL d   1      15.411   0.184  10.309  0.00  0.00     0.042 A 
ATOM     13  I   UNL d   1      14.722   0.787   8.431  0.00  0.00    -0.042 I 
ATOM     14  C   UNL d   1      16.549   0.751  10.885  0.00  0.00     0.082 A 
ATOM     15  C   UNL d   1      16.982   0.326  12.140  0.00  0.00     0.040 A 
ATOM     16  C   UNL d   1      16.276  -0.667  12.820  0.00  0.00     0.040 A 
BRANCH  14  17
ATOM     17  O   UNL d   1      17.266   1.723  10.252  0.00  0.00    -0.359 OA
ATOM     18  H   UNL d   1      18.213   1.592  10.430  0.00  0.00     0.217 HD
ENDBRANCH  14  17
ENDBRANCH   9  10
ENDBRANCH   6   9
BRANCH   3  19
ATOM     19  C   UNL d   1      17.179  -7.009  14.073  0.00  0.00     0.085 C 
BRANCH  19  20
ATOM     20  CA  UNL d   1      18.066  -6.906  15.323  0.00  0.00     0.318 C 
BRANCH  20  21
ATOM     21  N   UNL d   1      19.426  -7.333  15.001  0.00  0.00     0.093 N 
ATOM     22  H1  UNL d   1      20.094  -6.762  15.516  0.00  0.00     0.314 HD
ATOM     23  H2  UNL d   1      19.617  -7.161  14.014  0.00  0.00     0.314 HD
ENDBRANCH  20  21
BRANCH  20  24
ATOM     24  C   UNL d   1      17.581  -7.809  16.444  0.00  0.00     0.174 C 
ATOM     25  OXT UNL d   1      18.282  -8.608  17.052  0.00  0.00    -0.648 OA
BRANCH  24  26
ATOM     26  O   UNL d   1      16.268  -7.611  16.735  0.00  0.00    -0.775 OA
ATOM     27  H   UNL d   1      15.693  -7.779  15.958  0.00  0.00     0.167 HD
ENDBRANCH  24  26
ENDBRANCH  20  24
ENDBRANCH  19  20
ENDBRANCH   3  19
TORSDOF 8
ENDMDL
MODEL 6
REMARK VINA RESULT:      -5.0      1.397      2.544
REMARK  8 active torsions:
REMARK  status: ('A' for Active; 'I' for Inactive)
REMARK    1  A    between atoms: O_4  and  C_14 
REMARK    2  A    between atoms: O_4  and  C_18 
REMARK    3  A    between atoms: O_5  and  C_17 
REMARK    4  A    between atoms: O_7  and  C_23 
REMARK    5  A    between atoms: N_8  and  CA_10 
REMARK    6  A    between atoms: C_9  and  CA_10 
REMARK    7  A    between atoms: C_9  and  C_11 
REMARK    8  A    between atoms: CA_10  and  C_17 
ROOT
ATOM      1  I   UNL d   1      13.867  -8.773  13.332  0.00  0.00    -0.042 I 
ATOM      2  I   UNL d   1      19.501  -6.697  14.425  0.00  0.00    -0.042 I 
ATOM      3  C   UNL d   1      15.831  -4.941  12.962  0.00  0.00    -0.053 A 
ATOM      4  C   UNL d   1      17.135  -5.148  13.382  0.00  0.00     0.028 A 
ATOM      5  C   UNL d   1      14.905  -5.971  12.949  0.00  0.00     0.028 A 
ATOM      6  C   UNL d   1      16.602  -7.469  13.790  0.00  0.00     0.109 A 
ATOM      7  C   UNL d   1      15.294  -7.244  13.365  0.00  0.00     0.042 A 
ATOM      8  C   UNL d   1      17.523  -6.422  13.798  0.00  0.00     0.042 A 
ENDROOT
BRANCH   6   9
ATOM      9  O   UNL d   1      16.983  -8.716  14.199  0.00  0.00    -0.308 OA
BRANCH   9  10
ATOM     10  C   UNL d   1      16.620  -9.108  15.474  0.00  0.00     0.077 A 
ATOM     11  C   UNL d   1      16.444 -10.455  15.744  0.00  0.00     0.058 A 
ATOM     12  C   UNL d   1      16.079 -10.849  17.030  0.00  0.00     0.042 A 
ATOM     13  I   UNL d   1      15.818 -12.887  17.412  0.00  0.00    -0.042 I 
ATOM     14  C   UNL d   1      15.895  -9.891  18.028  0.00  0.00     0.082 A 
ATOM     15  C   UNL d   1      16.077  -8.539  17.739  0.00  0.00     0.040 A 
ATOM     16  C   UNL d   1      16.443  -8.145  16.452  0.00  0.00     0.040 A 
BRANCH  14  17
ATOM     17  O   UNL d   1      15.538 -10.236  19.298  0.00  0.00    -0.359 OA
ATOM     18  H   UNL d   1      15.906 -11.111  19.509  0.00  0.00     0.217 HD
ENDBRANCH  14  17
ENDBRANCH   9  10
ENDBRANCH   6   9
BRANCH   3  19
ATOM     19  C   UNL d   1      15.410  -3.562  12.512  0.00  0.00     0.085 C 
BRANCH  19  20
ATOM     20  CA  UNL d   1      15.669  -2.481  13.573  0.00  0.00     0.318 C 
BRANCH  20  21
ATOM     21  N   UNL d   1      14.630  -2.537  14.599  0.00  0.00     0.093 N 
ATOM     22  H1  UNL d   1      14.432  -1.596  14.936  0.00  0.00     0.314 HD
ATOM     23  H2  UNL d   1      14.972  -3.056  15.408  0.00  0.00     0.314 HD
ENDBRANCH  20  21
BRANCH  20  24
ATOM     24  C   UNL d   1      15.627  -1.081  12.986  0.00  0.00     0.174 C 
ATOM     25  OXT UNL d   1      14.667  -0.323  13.053  0.00  0.00    -0.648 OA
BRANCH  24  26
ATOM     26  O   UNL d   1      16.800  -0.733  12.395  0.00  0.00    -0.775 OA
ATOM     27  H   UNL d   1      16.757  -0.823  11.419  0.00  0.00     0.167 HD
ENDBRANCH  24  26
ENDBRANCH  20  24
ENDBRANCH  19  20
ENDBRANCH   3  19
TORSDOF 8
ENDMDL
MODEL 7
REMARK VINA RESULT:      -5.0      3.070      4.542
REMARK  8 active torsions:
REMARK  status: ('A' for Active; 'I' for Inactive)
REMARK    1  A    between atoms: O_4  and  C_14 
REMARK    2  A    between atoms: O_4  and  C_18 
REMARK    3  A    between atoms: O_5  and  C_17 
REMARK    4  A    between atoms: O_7  and  C_23 
REMARK    5  A    between atoms: N_8  and  CA_10 
REMARK    6  A    between atoms: C_9  and  CA_10 
REMARK    7  A    between atoms: C_9  and  C_11 
REMARK    8  A    between atoms: CA_10  and  C_17 
ROOT
ATOM      1  I   UNL d   1      14.703  -6.177  10.983  0.00  0.00    -0.042 I 
ATOM      2  I   UNL d   1      15.521  -2.128  15.476  0.00  0.00    -0.042 I 
ATOM      3  C   UNL d   1      14.986  -1.869  11.194  0.00  0.00    -0.053 A 
ATOM      4  C   UNL d   1      15.176  -1.573  12.534  0.00  0.00     0.028 A 
ATOM      5  C   UNL d   1      14.852  -3.176  10.755  0.00  0.00     0.028 A 
ATOM      6  C   UNL d   1      15.101  -3.935  13.035  0.00  0.00     0.109 A 
ATOM      7  C   UNL d   1      14.910  -4.216  11.682  0.00  0.00     0.042 A 
ATOM      8  C   UNL d   1      15.234  -2.614  13.461  0.00  0.00     0.042 A 
ENDROOT
BRANCH   6   9
ATOM      9  O   UNL d   1      15.157  -4.954  13.943  0.00  0.00    -0.308 OA
BRANCH   9  10
ATOM     10  C   UNL d   1      16.389  -5.539  14.172  0.00  0.00     0.077 A 
ATOM     11  C   UNL d   1      16.457  -6.705  14.915  0.00  0.00     0.058 A 
ATOM     12  C   UNL d   1      17.700  -7.294  15.145  0.00  0.00     0.042 A 
ATOM     13  I   UNL d   1      17.778  -9.052  16.272  0.00  0.00    -0.042 I 
ATOM     14  C   UNL d   1      18.856  -6.708  14.628  0.00  0.00     0.082 A 
ATOM     15  C   UNL d   1      18.769  -5.534  13.880  0.00  0.00     0.040 A 
ATOM     16  C   UNL d   1      17.525  -4.945  13.651  0.00  0.00     0.040 A 
BRANCH  14  17
ATOM     17  O   UNL d   1      20.090  -7.252  14.830  0.00  0.00    -0.359 OA
ATOM     18  H   UNL d   1      20.743  -6.539  14.932  0.00  0.00     0.217 HD
ENDBRANCH  14  17
ENDBRANCH   9  10
ENDBRANCH   6   9
BRANCH   3  19
ATOM     19  C   UNL d   1      14.922  -0.741  10.190  0.00  0.00     0.085 C 
BRANCH  19  20
ATOM     20  CA  UNL d   1      15.732   0.491  10.623  0.00  0.00     0.318 C 
BRANCH  20  21
ATOM     21  N   UNL d   1      15.336   1.648   9.824  0.00  0.00     0.093 N 
ATOM     22  H1  UNL d   1      14.322   1.746   9.843  0.00  0.00     0.314 HD
ATOM     23  H2  UNL d   1      15.582   1.494   8.846  0.00  0.00     0.314 HD
ENDBRANCH  20  21
BRANCH  20  24
ATOM     24  C   UNL d   1      17.223   0.301  10.405  0.00  0.00     0.174 C 
ATOM     25  OXT UNL d   1      18.045   0.133  11.296  0.00  0.00    -0.648 OA
BRANCH  24  26
ATOM     26  O   UNL d   1      17.556   0.299   9.087  0.00  0.00    -0.775 OA
ATOM     27  H   UNL d   1      18.373   0.814   8.918  0.00  0.00     0.167 HD
ENDBRANCH  24  26
ENDBRANCH  20  24
ENDBRANCH  19  20
ENDBRANCH   3  19
TORSDOF 8
ENDMDL
MODEL 8
REMARK VINA RESULT:      -5.0      2.905      7.731
REMARK  8 active torsions:
REMARK  status: ('A' for Active; 'I' for Inactive)
REMARK    1  A    between atoms: O_4  and  C_14 
REMARK    2  A    between atoms: O_4  and  C_18 
REMARK    3  A    between atoms: O_5  and  C_17 
REMARK    4  A    between atoms: O_7  and  C_23 
REMARK    5  A    between atoms: N_8  and  CA_10 
REMARK    6  A    between atoms: C_9  and  CA_10 
REMARK    7  A    between atoms: C_9  and  C_11 
REMARK    8  A    between atoms: CA_10  and  C_17 
ROOT
ATOM      1  I   UNL d   1      14.398  -8.443  13.418  0.00  0.00    -0.042 I 
ATOM      2  I   UNL d   1      20.037  -6.149  13.858  0.00  0.00    -0.042 I 
ATOM      3  C   UNL d   1      17.693  -8.950  16.170  0.00  0.00    -0.053 A 
ATOM      4  C   UNL d   1      18.704  -8.130  15.696  0.00  0.00     0.028 A 
ATOM      5  C   UNL d   1      16.472  -9.038  15.522  0.00  0.00     0.028 A 
ATOM      6  C   UNL d   1      17.262  -7.453  13.879  0.00  0.00     0.109 A 
ATOM      7  C   UNL d   1      16.255  -8.284  14.369  0.00  0.00     0.042 A 
ATOM      8  C   UNL d   1      18.487  -7.376  14.543  0.00  0.00     0.042 A 
ENDROOT
BRANCH   6   9
ATOM      9  O   UNL d   1      17.050  -6.715  12.750  0.00  0.00    -0.308 OA
BRANCH   9  10
ATOM     10  C   UNL d   1      16.276  -5.575  12.867  0.00  0.00     0.077 A 
ATOM     11  C   UNL d   1      16.445  -4.753  13.968  0.00  0.00     0.058 A 
ATOM     12  C   UNL d   1      15.665  -3.604  14.086  0.00  0.00     0.042 A 
ATOM     13  I   UNL d   1      15.937  -2.379  15.757  0.00  0.00    -0.042 I 
ATOM     14  C   UNL d   1      14.727  -3.293  13.100  0.00  0.00     0.082 A 
ATOM     15  C   UNL d   1      14.570  -4.132  11.998  0.00  0.00     0.040 A 
ATOM     16  C   UNL d   1      15.352  -5.282  11.880  0.00  0.00     0.040 A 
BRANCH  14  17
ATOM     17  O   UNL d   1      13.944  -2.179  13.178  0.00  0.00    -0.359 OA
ATOM     18  H   UNL d   1      13.301  -2.187  12.448  0.00  0.00     0.217 HD
ENDBRANCH  14  17
ENDBRANCH   9  10
ENDBRANCH   6   9
BRANCH   3  19
ATOM     19  C   UNL d   1      17.928  -9.768  17.418  0.00  0.00     0.085 C 
BRANCH  19  20
ATOM     20  CA  UNL d   1      16.778  -9.656  18.431  0.00  0.00     0.318 C 
BRANCH  20  21
ATOM     21  N   UNL d   1      17.185  -8.810  19.551  0.00  0.00     0.093 N 
ATOM     22  H1  UNL d   1      17.804  -8.074  19.216  0.00  0.00     0.314 HD
ATOM     23  H2  UNL d   1      17.736  -9.356  20.214  0.00  0.00     0.314 HD
ENDBRANCH  20  21
BRANCH  20  24
ATOM     24  C   UNL d   1      16.402 -11.005  19.019  0.00  0.00     0.174 C 
ATOM     25  OXT UNL d   1      15.256 -11.397  19.195  0.00  0.00    -0.648 OA
BRANCH  24  26
ATOM     26  O   UNL d   1      17.491 -11.766  19.305  0.00  0.00    -0.775 OA
ATOM     27  H   UNL d   1      18.313 -11.379  18.936  0.00  0.00     0.167 HD
ENDBRANCH  24  26
ENDBRANCH  20  24
ENDBRANCH  19  20
ENDBRANCH   3  19
TORSDOF 8
ENDMDL
MODEL 9
REMARK VINA RESULT:      -4.9     18.402     21.551
REMARK  8 active torsions:
REMARK  status: ('A' for Active; 'I' for Inactive)
REMARK    1  A    between atoms: O_4  and  C_14 
REMARK    2  A    between atoms: O_4  and  C_18 
REMARK    3  A    between atoms: O_5  and  C_17 
REMARK    4  A    between atoms: O_7  and  C_23 
REMARK    5  A    between atoms: N_8  and  CA_10 
REMARK    6  A    between atoms: C_9  and  CA_10 
REMARK    7  A    between atoms: C_9  and  C_11 
REMARK    8  A    between atoms: CA_10  and  C_17 
ROOT
ATOM      1  I   UNL d   1      11.545  13.551   6.511  0.00  0.00    -0.042 I 
ATOM      2  I   UNL d   1      13.231  13.201  12.366  0.00  0.00    -0.042 I 
ATOM      3  C   UNL d   1      12.104  16.413   9.701  0.00  0.00    -0.053 A 
ATOM      4  C   UNL d   1      12.501  15.671  10.802  0.00  0.00     0.028 A 
ATOM      5  C   UNL d   1      11.834  15.810   8.484  0.00  0.00     0.028 A 
ATOM      6  C   UNL d   1      12.362  13.665   9.462  0.00  0.00     0.109 A 
ATOM      7  C   UNL d   1      11.964  14.426   8.364  0.00  0.00     0.042 A 
ATOM      8  C   UNL d   1      12.631  14.287  10.682  0.00  0.00     0.042 A 
ENDROOT
BRANCH   6   9
ATOM      9  O   UNL d   1      12.489  12.310   9.345  0.00  0.00    -0.308 OA
BRANCH   9  10
ATOM     10  C   UNL d   1      11.345  11.546   9.492  0.00  0.00     0.077 A 
ATOM     11  C   UNL d   1      11.296  10.286   8.923  0.00  0.00     0.058 A 
ATOM     12  C   UNL d   1      10.142   9.516   9.072  0.00  0.00     0.042 A 
ATOM     13  I   UNL d   1      10.091   7.616   8.203  0.00  0.00    -0.042 I 
ATOM     14  C   UNL d   1       9.055  10.020   9.787  0.00  0.00     0.082 A 
ATOM     15  C   UNL d   1       9.123  11.292  10.354  0.00  0.00     0.040 A 
ATOM     16  C   UNL d   1      10.277  12.061  10.205  0.00  0.00     0.040 A 
BRANCH  14  17
ATOM     17  O   UNL d   1       7.909   9.300   9.956  0.00  0.00    -0.359 OA
ATOM     18  H   UNL d   1       7.189   9.899  10.217  0.00  0.00     0.217 HD
ENDBRANCH  14  17
ENDBRANCH   9  10
ENDBRANCH   6   9
BRANCH   3  19
ATOM     19  C   UNL d   1      11.963  17.911   9.832  0.00  0.00     0.085 C 
BRANCH  19  20
ATOM     20  CA  UNL d   1      12.299  18.423  11.241  0.00  0.00     0.318 C 
BRANCH  20  21
ATOM     21  N   UNL d   1      11.428  19.546  11.580  0.00  0.00     0.093 N 
ATOM     22  H1  UNL d   1      10.488  19.368  11.228  0.00  0.00     0.314 HD
ATOM     23  H2  UNL d   1      11.748  20.388  11.102  0.00  0.00     0.314 HD
ENDBRANCH  20  21
BRANCH  20  24
ATOM     24  C   UNL d   1      13.725  18.933  11.340  0.00  0.00     0.174 C 
ATOM     25  OXT UNL d   1      14.563  18.846  10.450  0.00  0.00    -0.648 OA
BRANCH  24  26
ATOM     26  O   UNL d   1      13.976  19.542  12.529  0.00  0.00    -0.775 OA
ATOM     27  H   UNL d   1      14.538  18.988  13.111  0.00  0.00     0.167 HD
ENDBRANCH  24  26
ENDBRANCH  20  24
ENDBRANCH  19  20
ENDBRANCH   3  19
TORSDOF 8
ENDMDL
