MODEL 1
REMARK VINA RESULT:      -7.3      0.000      0.000
REMARK  2 active torsions:
REMARK  status: ('A' for Active; 'I' for Inactive)
REMARK    1  A    between atoms: O_1  and  C_7 
REMARK    2  A    between atoms: O_2  and  C_20 
ROOT
ATOM      1  C   UNL d   1      16.659   1.093  10.168  0.00  0.00    -0.014 C 
ATOM      2  C   UNL d   1      15.375   0.292  10.461  0.00  0.00     0.001 C 
ATOM      3  C   UNL d   1      15.664  -1.001  11.225  0.00  0.00    -0.001 C 
ATOM      4  C   UNL d   1      16.307  -0.636  12.598  0.00  0.00     0.023 C 
ATOM      5  C   UNL d   1      16.048   2.254   9.360  0.00  0.00     0.126 C 
ATOM      6  C   UNL d   1      17.285   1.498  11.509  0.00  0.00     0.013 C 
ATOM      7  C   UNL d   1      14.684   0.219   9.103  0.00  0.00     0.008 C 
ATOM      8  C   UNL d   1      17.549   0.277  12.411  0.00  0.00     0.010 C 
ATOM      9  C   UNL d   1      15.019   1.569   8.441  0.00  0.00     0.033 C 
ATOM     10  C   UNL d   1      14.403  -1.831  11.471  0.00  0.00     0.010 C 
ATOM     11  C   UNL d   1      17.714   0.342   9.317  0.00  0.00     0.018 C 
ATOM     12  C   UNL d   1      16.543  -1.883  13.447  0.00  0.00    -0.047 A 
ATOM     13  C   UNL d   1      14.779  -3.167  12.107  0.00  0.00     0.039 C 
ATOM     14  C   UNL d   1      15.784  -3.052  13.228  0.00  0.00    -0.049 A 
ATOM     15  C   UNL d   1      17.451  -1.870  14.519  0.00  0.00     0.011 A 
ATOM     16  C   UNL d   1      15.987  -4.182  14.041  0.00  0.00     0.044 A 
ATOM     17  C   UNL d   1      17.638  -2.996  15.324  0.00  0.00     0.037 A 
ATOM     18  C   UNL d   1      16.910  -4.154  15.083  0.00  0.00     0.066 A 
ENDROOT
BRANCH   5  19
ATOM     19  O   UNL d   1      17.010   2.981   8.621  0.00  0.00    -0.395 OA
ATOM     20  H   UNL d   1      17.550   3.482   9.257  0.00  0.00     0.210 HD
ENDBRANCH   5  19
BRANCH  18  21
ATOM     21  O   UNL d   1      17.092  -5.252  15.864  0.00  0.00    -0.361 OA
ATOM     22  H   UNL d   1      17.902  -5.134  16.390  0.00  0.00     0.217 HD
ENDBRANCH  18  21
TORSDOF 2
ENDMDL
MODEL 2
REMARK VINA RESULT:      -7.0     22.668     23.686
REMARK  2 active torsions:
REMARK  status: ('A' for Active; 'I' for Inactive)
REMARK    1  A    between atoms: O_1  and  C_7 
REMARK    2  A    between atoms: O_2  and  C_20 
ROOT
ATOM      1  C   UNL d   1      -2.563  15.383  17.872  0.00  0.00    -0.014 C 
ATOM      2  C   UNL d   1      -1.053  15.231  18.143  0.00  0.00     0.001 C 
ATOM      3  C   UNL d   1      -0.731  13.951  18.914  0.00  0.00    -0.001 C 
ATOM      4  C   UNL d   1      -1.173  12.728  18.055  0.00  0.00     0.023 C 
ATOM      5  C   UNL d   1      -2.553  16.753  17.168  0.00  0.00     0.126 C 
ATOM      6  C   UNL d   1      -3.010  14.208  16.992  0.00  0.00     0.013 C 
ATOM      7  C   UNL d   1      -0.662  16.581  18.738  0.00  0.00     0.008 C 
ATOM      8  C   UNL d   1      -2.661  12.850  17.629  0.00  0.00     0.010 C 
ATOM      9  C   UNL d   1      -1.557  17.590  17.994  0.00  0.00     0.033 C 
ATOM     10  C   UNL d   1       0.759  13.820  19.237  0.00  0.00     0.010 C 
ATOM     11  C   UNL d   1      -3.450  15.436  19.142  0.00  0.00     0.018 C 
ATOM     12  C   UNL d   1      -0.801  11.412  18.735  0.00  0.00    -0.047 A 
ATOM     13  C   UNL d   1       0.990  12.601  20.126  0.00  0.00     0.039 C 
ATOM     14  C   UNL d   1       0.249  11.365  19.677  0.00  0.00    -0.049 A 
ATOM     15  C   UNL d   1      -1.428  10.206  18.377  0.00  0.00     0.011 A 
ATOM     16  C   UNL d   1       0.605  10.139  20.269  0.00  0.00     0.044 A 
ATOM     17  C   UNL d   1      -1.060   8.995  18.966  0.00  0.00     0.037 A 
ATOM     18  C   UNL d   1      -0.047   8.961  19.916  0.00  0.00     0.066 A 
ENDROOT
BRANCH   5  19
ATOM     19  O   UNL d   1      -3.831  17.358  17.117  0.00  0.00    -0.395 OA
ATOM     20  H   UNL d   1      -3.704  18.318  17.218  0.00  0.00     0.210 HD
ENDBRANCH   5  19
BRANCH  18  21
ATOM     21  O   UNL d   1       0.312   7.783  20.492  0.00  0.00    -0.361 OA
ATOM     22  H   UNL d   1       0.161   7.843  21.452  0.00  0.00     0.217 HD
ENDBRANCH  18  21
TORSDOF 2
ENDMDL
MODEL 3
REMARK VINA RESULT:      -6.8      0.976      6.689
REMARK  2 active torsions:
REMARK  status: ('A' for Active; 'I' for Inactive)
REMARK    1  A    between atoms: O_1  and  C_7 
REMARK    2  A    between atoms: O_2  and  C_20 
ROOT
ATOM      1  C   UNL d   1      15.828  -3.029  13.752  0.00  0.00    -0.014 C 
ATOM      2  C   UNL d   1      16.439  -1.624  13.919  0.00  0.00     0.001 C 
ATOM      3  C   UNL d   1      16.615  -0.908  12.581  0.00  0.00    -0.001 C 
ATOM      4  C   UNL d   1      15.213  -0.729  11.923  0.00  0.00     0.023 C 
ATOM      5  C   UNL d   1      15.848  -3.487  15.223  0.00  0.00     0.126 C 
ATOM      6  C   UNL d   1      14.429  -2.872  13.143  0.00  0.00     0.013 C 
ATOM      7  C   UNL d   1      17.660  -1.870  14.802  0.00  0.00     0.008 C 
ATOM      8  C   UNL d   1      14.465  -2.085  11.819  0.00  0.00     0.010 C 
ATOM      9  C   UNL d   1      17.215  -3.004  15.745  0.00  0.00     0.033 C 
ATOM     10  C   UNL d   1      17.273   0.465  12.731  0.00  0.00     0.010 C 
ATOM     11  C   UNL d   1      16.660  -4.000  12.875  0.00  0.00     0.018 C 
ATOM     12  C   UNL d   1      15.311   0.057  10.617  0.00  0.00    -0.047 A 
ATOM     13  C   UNL d   1      17.549   1.061  11.353  0.00  0.00     0.039 C 
ATOM     14  C   UNL d   1      16.398   0.927  10.385  0.00  0.00    -0.049 A 
ATOM     15  C   UNL d   1      14.285   0.004   9.659  0.00  0.00     0.011 A 
ATOM     16  C   UNL d   1      16.457   1.672   9.193  0.00  0.00     0.044 A 
ATOM     17  C   UNL d   1      14.351   0.755   8.483  0.00  0.00     0.037 A 
ATOM     18  C   UNL d   1      15.439   1.586   8.247  0.00  0.00     0.066 A 
ENDROOT
BRANCH   5  19
ATOM     19  O   UNL d   1      15.694  -4.884  15.370  0.00  0.00    -0.395 OA
ATOM     20  H   UNL d   1      15.148  -5.036  16.161  0.00  0.00     0.210 HD
ENDBRANCH   5  19
BRANCH  18  21
ATOM     21  O   UNL d   1      15.508   2.316   7.102  0.00  0.00    -0.361 OA
ATOM     22  H   UNL d   1      15.918   3.176   7.301  0.00  0.00     0.217 HD
ENDBRANCH  18  21
TORSDOF 2
ENDMDL
MODEL 4
REMARK VINA RESULT:      -6.8     22.762     23.608
REMARK  2 active torsions:
REMARK  status: ('A' for Active; 'I' for Inactive)
REMARK    1  A    between atoms: O_1  and  C_7 
REMARK    2  A    between atoms: O_2  and  C_20 
ROOT
ATOM      1  C   UNL d   1      -1.293  15.627  17.988  0.00  0.00    -0.014 C 
ATOM      2  C   UNL d   1      -2.405  14.855  18.725  0.00  0.00     0.001 C 
ATOM      3  C   UNL d   1      -2.133  13.351  18.766  0.00  0.00    -0.001 C 
ATOM      4  C   UNL d   1      -0.804  13.106  19.542  0.00  0.00     0.023 C 
ATOM      5  C   UNL d   1      -1.886  17.048  18.063  0.00  0.00     0.126 C 
ATOM      6  C   UNL d   1       0.017  15.433  18.761  0.00  0.00     0.013 C 
ATOM      7  C   UNL d   1      -3.686  15.366  18.071  0.00  0.00     0.008 C 
ATOM      8  C   UNL d   1       0.360  13.941  18.942  0.00  0.00     0.010 C 
ATOM      9  C   UNL d   1      -3.383  16.844  17.763  0.00  0.00     0.033 C 
ATOM     10  C   UNL d   1      -3.258  12.569  19.445  0.00  0.00     0.010 C 
ATOM     11  C   UNL d   1      -1.081  15.210  16.510  0.00  0.00     0.018 C 
ATOM     12  C   UNL d   1      -0.518  11.613  19.691  0.00  0.00    -0.047 A 
ATOM     13  C   UNL d   1      -2.993  11.070  19.325  0.00  0.00     0.039 C 
ATOM     14  C   UNL d   1      -1.569  10.673  19.628  0.00  0.00    -0.049 A 
ATOM     15  C   UNL d   1       0.775  11.147  19.983  0.00  0.00     0.011 A 
ATOM     16  C   UNL d   1      -1.295   9.304  19.803  0.00  0.00     0.044 A 
ATOM     17  C   UNL d   1       1.032   9.786  20.163  0.00  0.00     0.037 A 
ATOM     18  C   UNL d   1      -0.002   8.863  20.068  0.00  0.00     0.066 A 
ENDROOT
BRANCH   5  19
ATOM     19  O   UNL d   1      -1.286  17.947  17.151  0.00  0.00    -0.395 OA
ATOM     20  H   UNL d   1      -0.446  18.244  17.543  0.00  0.00     0.210 HD
ENDBRANCH   5  19
BRANCH  18  21
ATOM     21  O   UNL d   1       0.245   7.538  20.239  0.00  0.00    -0.361 OA
ATOM     22  H   UNL d   1      -0.301   7.031  19.613  0.00  0.00     0.217 HD
ENDBRANCH  18  21
TORSDOF 2
ENDMDL
MODEL 5
REMARK VINA RESULT:      -6.6     22.183     23.741
REMARK  2 active torsions:
REMARK  status: ('A' for Active; 'I' for Inactive)
REMARK    1  A    between atoms: O_1  and  C_7 
REMARK    2  A    between atoms: O_2  and  C_20 
ROOT
ATOM      1  C   UNL d   1      -1.565   9.251  19.101  0.00  0.00    -0.014 C 
ATOM      2  C   UNL d   1      -0.521  10.082  19.872  0.00  0.00     0.001 C 
ATOM      3  C   UNL d   1      -0.387  11.500  19.316  0.00  0.00    -0.001 C 
ATOM      4  C   UNL d   1      -1.759  12.225  19.463  0.00  0.00     0.023 C 
ATOM      5  C   UNL d   1      -1.410   7.909  19.842  0.00  0.00     0.126 C 
ATOM      6  C   UNL d   1      -2.932   9.927  19.269  0.00  0.00     0.013 C 
ATOM      7  C   UNL d   1       0.704   9.173  19.905  0.00  0.00     0.008 C 
ATOM      8  C   UNL d   1      -2.903  11.399  18.816  0.00  0.00     0.010 C 
ATOM      9  C   UNL d   1       0.112   7.755  20.022  0.00  0.00     0.033 C 
ATOM     10  C   UNL d   1       0.688  12.315  20.038  0.00  0.00     0.010 C 
ATOM     11  C   UNL d   1      -1.266   9.071  17.591  0.00  0.00     0.018 C 
ATOM     12  C   UNL d   1      -1.668  13.678  19.001  0.00  0.00    -0.047 A 
ATOM     13  C   UNL d   1       0.869  13.662  19.345  0.00  0.00     0.039 C 
ATOM     14  C   UNL d   1      -0.427  14.351  18.992  0.00  0.00    -0.049 A 
ATOM     15  C   UNL d   1      -2.821  14.405  18.661  0.00  0.00     0.011 A 
ATOM     16  C   UNL d   1      -0.365  15.700  18.598  0.00  0.00     0.044 A 
ATOM     17  C   UNL d   1      -2.747  15.747  18.280  0.00  0.00     0.037 A 
ATOM     18  C   UNL d   1      -1.518  16.393  18.243  0.00  0.00     0.066 A 
ENDROOT
BRANCH   5  19
ATOM     19  O   UNL d   1      -1.967   6.819  19.133  0.00  0.00    -0.395 OA
ATOM     20  H   UNL d   1      -1.567   6.005  19.487  0.00  0.00     0.210 HD
ENDBRANCH   5  19
BRANCH  18  21
ATOM     21  O   UNL d   1      -1.442  17.698  17.869  0.00  0.00    -0.361 OA
ATOM     22  H   UNL d   1      -1.949  17.821  17.047  0.00  0.00     0.217 HD
ENDBRANCH  18  21
TORSDOF 2
ENDMDL
MODEL 6
REMARK VINA RESULT:      -6.4      1.753      7.075
REMARK  2 active torsions:
REMARK  status: ('A' for Active; 'I' for Inactive)
REMARK    1  A    between atoms: O_1  and  C_7 
REMARK    2  A    between atoms: O_2  and  C_20 
ROOT
ATOM      1  C   UNL d   1      15.904  -5.937  13.557  0.00  0.00    -0.014 C 
ATOM      2  C   UNL d   1      16.225  -4.699  14.416  0.00  0.00     0.001 C 
ATOM      3  C   UNL d   1      16.467  -3.453  13.565  0.00  0.00    -0.001 C 
ATOM      4  C   UNL d   1      15.168  -3.137  12.762  0.00  0.00     0.023 C 
ATOM      5  C   UNL d   1      15.787  -6.992  14.675  0.00  0.00     0.126 C 
ATOM      6  C   UNL d   1      14.604  -5.662  12.790  0.00  0.00     0.013 C 
ATOM      7  C   UNL d   1      17.326  -5.191  15.352  0.00  0.00     0.008 C 
ATOM      8  C   UNL d   1      14.695  -4.374  11.951  0.00  0.00     0.010 C 
ATOM      9  C   UNL d   1      16.954  -6.660  15.624  0.00  0.00     0.033 C 
ATOM     10  C   UNL d   1      16.843  -2.231  14.405  0.00  0.00     0.010 C 
ATOM     11  C   UNL d   1      17.014  -6.338  12.553  0.00  0.00     0.018 C 
ATOM     12  C   UNL d   1      15.318  -1.851  11.953  0.00  0.00    -0.047 A 
ATOM     13  C   UNL d   1      17.209  -1.065  13.489  0.00  0.00     0.039 C 
ATOM     14  C   UNL d   1      16.255  -0.868  12.336  0.00  0.00    -0.049 A 
ATOM     15  C   UNL d   1      14.470  -1.573  10.867  0.00  0.00     0.011 A 
ATOM     16  C   UNL d   1      16.357   0.328  11.601  0.00  0.00     0.044 A 
ATOM     17  C   UNL d   1      14.575  -0.379  10.151  0.00  0.00     0.037 A 
ATOM     18  C   UNL d   1      15.522   0.570  10.514  0.00  0.00     0.066 A 
ENDROOT
BRANCH   5  19
ATOM     19  O   UNL d   1      15.862  -8.319  14.194  0.00  0.00    -0.395 OA
ATOM     20  H   UNL d   1      15.991  -8.274  13.230  0.00  0.00     0.210 HD
ENDBRANCH   5  19
BRANCH  18  21
ATOM     21  O   UNL d   1      15.629   1.732   9.818  0.00  0.00    -0.361 OA
ATOM     22  H   UNL d   1      15.242   2.453  10.346  0.00  0.00     0.217 HD
ENDBRANCH  18  21
TORSDOF 2
ENDMDL
MODEL 7
REMARK VINA RESULT:      -6.3      3.548      6.196
REMARK  2 active torsions:
REMARK  status: ('A' for Active; 'I' for Inactive)
REMARK    1  A    between atoms: O_1  and  C_7 
REMARK    2  A    between atoms: O_2  and  C_20 
ROOT
ATOM      1  C   UNL d   1      15.546  -3.028  14.063  0.00  0.00    -0.014 C 
ATOM      2  C   UNL d   1      16.914  -3.736  13.984  0.00  0.00     0.001 C 
ATOM      3  C   UNL d   1      16.931  -5.047  14.769  0.00  0.00    -0.001 C 
ATOM      4  C   UNL d   1      15.873  -6.011  14.151  0.00  0.00     0.023 C 
ATOM      5  C   UNL d   1      15.877  -1.757  13.257  0.00  0.00     0.126 C 
ATOM      6  C   UNL d   1      14.497  -3.945  13.421  0.00  0.00     0.013 C 
ATOM      7  C   UNL d   1      17.906  -2.634  14.348  0.00  0.00     0.008 C 
ATOM      8  C   UNL d   1      14.476  -5.339  14.077  0.00  0.00     0.010 C 
ATOM      9  C   UNL d   1      17.283  -1.359  13.748  0.00  0.00     0.033 C 
ATOM     10  C   UNL d   1      18.300  -5.729  14.744  0.00  0.00     0.010 C 
ATOM     11  C   UNL d   1      15.090  -2.654  15.496  0.00  0.00     0.018 C 
ATOM     12  C   UNL d   1      15.899  -7.375  14.839  0.00  0.00    -0.047 A 
ATOM     13  C   UNL d   1      18.287  -6.951  15.659  0.00  0.00     0.039 C 
ATOM     14  C   UNL d   1      17.061  -7.817  15.508  0.00  0.00    -0.049 A 
ATOM     15  C   UNL d   1      14.808  -8.256  14.748  0.00  0.00     0.011 A 
ATOM     16  C   UNL d   1      17.082  -9.090  16.107  0.00  0.00     0.044 A 
ATOM     17  C   UNL d   1      14.845  -9.520  15.340  0.00  0.00     0.037 A 
ATOM     18  C   UNL d   1      15.980  -9.936  16.024  0.00  0.00     0.066 A 
ENDROOT
BRANCH   5  19
ATOM     19  O   UNL d   1      14.939  -0.718  13.453  0.00  0.00    -0.395 OA
ATOM     20  H   UNL d   1      14.160  -0.920  12.907  0.00  0.00     0.210 HD
ENDBRANCH   5  19
BRANCH  18  21
ATOM     21  O   UNL d   1      16.018 -11.165  16.603  0.00  0.00    -0.361 OA
ATOM     22  H   UNL d   1      16.010 -11.059  17.571  0.00  0.00     0.217 HD
ENDBRANCH  18  21
TORSDOF 2
ENDMDL
MODEL 8
REMARK VINA RESULT:      -6.2     12.745     14.742
REMARK  2 active torsions:
REMARK  status: ('A' for Active; 'I' for Inactive)
REMARK    1  A    between atoms: O_1  and  C_7 
REMARK    2  A    between atoms: O_2  and  C_20 
ROOT
ATOM      1  C   UNL d   1      12.888  14.221  11.849  0.00  0.00    -0.014 C 
ATOM      2  C   UNL d   1      13.049  13.829  10.367  0.00  0.00     0.001 C 
ATOM      3  C   UNL d   1      12.435  12.463  10.062  0.00  0.00    -0.001 C 
ATOM      4  C   UNL d   1      10.907  12.524  10.364  0.00  0.00     0.023 C 
ATOM      5  C   UNL d   1      13.645  15.564  11.834  0.00  0.00     0.126 C 
ATOM      6  C   UNL d   1      11.389  14.328  12.155  0.00  0.00     0.013 C 
ATOM      7  C   UNL d   1      14.533  14.059  10.097  0.00  0.00     0.008 C 
ATOM      8  C   UNL d   1      10.639  13.028  11.808  0.00  0.00     0.010 C 
ATOM      9  C   UNL d   1      14.883  15.285  10.961  0.00  0.00     0.033 C 
ATOM     10  C   UNL d   1      12.638  12.039   8.607  0.00  0.00     0.010 C 
ATOM     11  C   UNL d   1      13.547  13.243  12.855  0.00  0.00     0.018 C 
ATOM     12  C   UNL d   1      10.218  11.211   9.999  0.00  0.00    -0.047 A 
ATOM     13  C   UNL d   1      12.131  10.613   8.407  0.00  0.00     0.039 C 
ATOM     14  C   UNL d   1      10.790  10.344   9.043  0.00  0.00    -0.049 A 
ATOM     15  C   UNL d   1       8.962  10.876  10.533  0.00  0.00     0.011 A 
ATOM     16  C   UNL d   1      10.126   9.154   8.691  0.00  0.00     0.044 A 
ATOM     17  C   UNL d   1       8.309   9.697  10.169  0.00  0.00     0.037 A 
ATOM     18  C   UNL d   1       8.893   8.833   9.252  0.00  0.00     0.066 A 
ENDROOT
BRANCH   5  19
ATOM     19  O   UNL d   1      14.003  16.012  13.127  0.00  0.00    -0.395 OA
ATOM     20  H   UNL d   1      14.712  15.429  13.451  0.00  0.00     0.210 HD
ENDBRANCH   5  19
BRANCH  18  21
ATOM     21  O   UNL d   1       8.262   7.682   8.897  0.00  0.00    -0.361 OA
ATOM     22  H   UNL d   1       7.365   7.685   9.275  0.00  0.00     0.217 HD
ENDBRANCH  18  21
TORSDOF 2
ENDMDL
MODEL 9
REMARK VINA RESULT:      -5.9      1.801      3.256
REMARK  2 active torsions:
REMARK  status: ('A' for Active; 'I' for Inactive)
REMARK    1  A    between atoms: O_1  and  C_7 
REMARK    2  A    between atoms: O_2  and  C_20 
ROOT
ATOM      1  C   UNL d   1      15.201   0.183   7.874  0.00  0.00    -0.014 C 
ATOM      2  C   UNL d   1      16.320   0.527   8.876  0.00  0.00     0.001 C 
ATOM      3  C   UNL d   1      15.948   0.148  10.309  0.00  0.00    -0.001 C 
ATOM      4  C   UNL d   1      15.722  -1.393  10.375  0.00  0.00     0.023 C 
ATOM      5  C   UNL d   1      15.843   0.733   6.586  0.00  0.00     0.126 C 
ATOM      6  C   UNL d   1      14.993  -1.337   7.893  0.00  0.00     0.013 C 
ATOM      7  C   UNL d   1      16.656   1.979   8.550  0.00  0.00     0.008 C 
ATOM      8  C   UNL d   1      14.690  -1.855   9.312  0.00  0.00     0.010 C 
ATOM      9  C   UNL d   1      16.471   2.070   7.023  0.00  0.00     0.033 C 
ATOM     10  C   UNL d   1      17.029   0.537  11.320  0.00  0.00     0.010 C 
ATOM     11  C   UNL d   1      13.847   0.888   8.144  0.00  0.00     0.018 C 
ATOM     12  C   UNL d   1      15.428  -1.848  11.803  0.00  0.00    -0.047 A 
ATOM     13  C   UNL d   1      16.534   0.263  12.738  0.00  0.00     0.039 C 
ATOM     14  C   UNL d   1      15.856  -1.075  12.904  0.00  0.00    -0.049 A 
ATOM     15  C   UNL d   1      14.808  -3.083  12.059  0.00  0.00     0.011 A 
ATOM     16  C   UNL d   1      15.609  -1.524  14.214  0.00  0.00     0.044 A 
ATOM     17  C   UNL d   1      14.577  -3.522  13.364  0.00  0.00     0.037 A 
ATOM     18  C   UNL d   1      14.972  -2.741  14.442  0.00  0.00     0.066 A 
ENDROOT
BRANCH   5  19
ATOM     19  O   UNL d   1      14.913   0.909   5.535  0.00  0.00    -0.395 OA
ATOM     20  H   UNL d   1      14.177   1.442   5.883  0.00  0.00     0.210 HD
ENDBRANCH   5  19
BRANCH  18  21
ATOM     21  O   UNL d   1      14.746  -3.164  15.714  0.00  0.00    -0.361 OA
ATOM     22  H   UNL d   1      15.515  -3.678  16.018  0.00  0.00     0.217 HD
ENDBRANCH  18  21
TORSDOF 2
ENDMDL
