MODEL 1
REMARK VINA RESULT:      -4.5      0.000      0.000
REMARK  12 active torsions:
REMARK  status: ('A' for Active; 'I' for Inactive)
REMARK    1  A    between atoms: P_4  and  O_5 
REMARK    2  A    between atoms: P_4  and  O_6 
REMARK    3  A    between atoms: P_4  and  O_7 
REMARK    4  A    between atoms: O_5  and  C_9 
REMARK    5  A    between atoms: O_6  and  C_10 
REMARK    6  A    between atoms: O_7  and  C_11 
REMARK    7  A    between atoms: C_9  and  C_12 
REMARK    8  A    between atoms: C_10  and  C_13 
REMARK    9  A    between atoms: C_11  and  C_14 
REMARK   10  A    between atoms: C_12  and  C_15 
REMARK   11  A    between atoms: C_13  and  C_16 
REMARK   12  A    between atoms: C_14  and  C_17 
ROOT
ATOM      1  P   UNL d   1      14.998  -1.447  12.436  0.00  0.00     0.477 P 
ATOM      2  O   UNL d   1      14.683  -0.110  13.045  0.00  0.00    -0.227 OA
ENDROOT
BRANCH   1   3
ATOM      3  O   UNL d   1      14.902  -1.484  10.818  0.00  0.00    -0.292 OA
BRANCH   3   4
ATOM      4  C   UNL d   1      14.531  -0.318  10.101  0.00  0.00     0.181 C 
BRANCH   4   5
ATOM      5  C   UNL d   1      15.759   0.221   9.377  0.00  0.00     0.042 C 
BRANCH   5   6
ATOM      6  C   UNL d   1      16.286   1.525   9.959  0.00  0.00     0.116 C 
ATOM      7 CL   UNL d   1      17.474   1.246  11.253  0.00  0.00    -0.130 Cl
ENDBRANCH   5   6
ENDBRANCH   4   5
ENDBRANCH   3   4
ENDBRANCH   1   3
BRANCH   1   8
ATOM      8  O   UNL d   1      14.037  -2.656  12.926  0.00  0.00    -0.292 OA
BRANCH   8   9
ATOM      9  C   UNL d   1      14.336  -3.972  12.496  0.00  0.00     0.181 C 
BRANCH   9  10
ATOM     10  C   UNL d   1      14.260  -4.908  13.697  0.00  0.00     0.042 C 
BRANCH  10  11
ATOM     11  C   UNL d   1      15.393  -5.924  13.753  0.00  0.00     0.116 C 
ATOM     12 CL   UNL d   1      16.757  -5.458  12.710  0.00  0.00    -0.130 Cl
ENDBRANCH  10  11
ENDBRANCH   9  10
ENDBRANCH   8   9
ENDBRANCH   1   8
BRANCH   1  13
ATOM     13  O   UNL d   1      16.482  -2.007  12.767  0.00  0.00    -0.292 OA
BRANCH  13  14
ATOM     14  C   UNL d   1      17.199  -1.426  13.843  0.00  0.00     0.181 C 
BRANCH  14  15
ATOM     15  C   UNL d   1      17.956  -2.526  14.576  0.00  0.00     0.042 C 
BRANCH  15  16
ATOM     16  C   UNL d   1      17.121  -3.246  15.626  0.00  0.00     0.116 C 
ATOM     17 CL   UNL d   1      15.727  -2.274  16.150  0.00  0.00    -0.130 Cl
ENDBRANCH  15  16
ENDBRANCH  14  15
ENDBRANCH  13  14
ENDBRANCH   1  13
TORSDOF 12
ENDMDL
MODEL 2
REMARK VINA RESULT:      -4.4      0.940      5.125
REMARK  12 active torsions:
REMARK  status: ('A' for Active; 'I' for Inactive)
REMARK    1  A    between atoms: P_4  and  O_5 
REMARK    2  A    between atoms: P_4  and  O_6 
REMARK    3  A    between atoms: P_4  and  O_7 
REMARK    4  A    between atoms: O_5  and  C_9 
REMARK    5  A    between atoms: O_6  and  C_10 
REMARK    6  A    between atoms: O_7  and  C_11 
REMARK    7  A    between atoms: C_9  and  C_12 
REMARK    8  A    between atoms: C_10  and  C_13 
REMARK    9  A    between atoms: C_11  and  C_14 
REMARK   10  A    between atoms: C_12  and  C_15 
REMARK   11  A    between atoms: C_13  and  C_16 
REMARK   12  A    between atoms: C_14  and  C_17 
ROOT
ATOM      1  P   UNL d   1      15.139  -1.284  12.507  0.00  0.00     0.477 P 
ATOM      2  O   UNL d   1      14.844  -0.052  13.314  0.00  0.00    -0.227 OA
ENDROOT
BRANCH   1   3
ATOM      3  O   UNL d   1      16.597  -1.935  12.789  0.00  0.00    -0.292 OA
BRANCH   3   4
ATOM      4  C   UNL d   1      17.290  -1.635  13.990  0.00  0.00     0.181 C 
BRANCH   4   5
ATOM      5  C   UNL d   1      17.858  -2.928  14.561  0.00  0.00     0.042 C 
BRANCH   5   6
ATOM      6  C   UNL d   1      16.979  -3.560  15.631  0.00  0.00     0.116 C 
ATOM      7 CL   UNL d   1      15.571  -2.546  16.022  0.00  0.00    -0.130 Cl
ENDBRANCH   5   6
ENDBRANCH   4   5
ENDBRANCH   3   4
ENDBRANCH   1   3
BRANCH   1   8
ATOM      8  O   UNL d   1      15.098  -1.067  10.902  0.00  0.00    -0.292 OA
BRANCH   8   9
ATOM      9  C   UNL d   1      15.486   0.193  10.382  0.00  0.00     0.181 C 
BRANCH   9  10
ATOM     10  C   UNL d   1      16.887   0.068   9.794  0.00  0.00     0.042 C 
BRANCH  10  11
ATOM     11  C   UNL d   1      17.969   0.713  10.651  0.00  0.00     0.116 C 
ATOM     12 CL   UNL d   1      19.595   0.445   9.983  0.00  0.00    -0.130 Cl
ENDBRANCH  10  11
ENDBRANCH   9  10
ENDBRANCH   8   9
ENDBRANCH   1   8
BRANCH   1  13
ATOM     13  O   UNL d   1      14.100  -2.506  12.735  0.00  0.00    -0.292 OA
BRANCH  13  14
ATOM     14  C   UNL d   1      14.444  -3.787  12.234  0.00  0.00     0.181 C 
BRANCH  14  15
ATOM     15  C   UNL d   1      14.235  -4.815  13.338  0.00  0.00     0.042 C 
BRANCH  15  16
ATOM     16  C   UNL d   1      15.070  -6.077  13.162  0.00  0.00     0.116 C 
ATOM     17 CL   UNL d   1      16.718  -5.713  12.602  0.00  0.00    -0.130 Cl
ENDBRANCH  15  16
ENDBRANCH  14  15
ENDBRANCH  13  14
ENDBRANCH   1  13
TORSDOF 12
ENDMDL
MODEL 3
REMARK VINA RESULT:      -4.3      1.431      1.615
REMARK  12 active torsions:
REMARK  status: ('A' for Active; 'I' for Inactive)
REMARK    1  A    between atoms: P_4  and  O_5 
REMARK    2  A    between atoms: P_4  and  O_6 
REMARK    3  A    between atoms: P_4  and  O_7 
REMARK    4  A    between atoms: O_5  and  C_9 
REMARK    5  A    between atoms: O_6  and  C_10 
REMARK    6  A    between atoms: O_7  and  C_11 
REMARK    7  A    between atoms: C_9  and  C_12 
REMARK    8  A    between atoms: C_10  and  C_13 
REMARK    9  A    between atoms: C_11  and  C_14 
REMARK   10  A    between atoms: C_12  and  C_15 
REMARK   11  A    between atoms: C_13  and  C_16 
REMARK   12  A    between atoms: C_14  and  C_17 
ROOT
ATOM      1  P   UNL d   1      15.125  -1.415  12.567  0.00  0.00     0.477 P 
ATOM      2  O   UNL d   1      14.854  -0.158  13.344  0.00  0.00    -0.227 OA
ENDROOT
BRANCH   1   3
ATOM      3  O   UNL d   1      15.220  -1.201  10.963  0.00  0.00    -0.292 OA
BRANCH   3   4
ATOM      4  C   UNL d   1      14.863   0.045  10.388  0.00  0.00     0.181 C 
BRANCH   4   5
ATOM      5  C   UNL d   1      16.012   0.524   9.508  0.00  0.00     0.042 C 
BRANCH   5   6
ATOM      6  C   UNL d   1      17.385   0.315  10.133  0.00  0.00     0.116 C 
ATOM      7 CL   UNL d   1      17.644   1.367  11.542  0.00  0.00    -0.130 Cl
ENDBRANCH   5   6
ENDBRANCH   4   5
ENDBRANCH   3   4
ENDBRANCH   1   3
BRANCH   1   8
ATOM      8  O   UNL d   1      14.015  -2.579  12.755  0.00  0.00    -0.292 OA
BRANCH   8   9
ATOM      9  C   UNL d   1      14.447  -3.864  13.165  0.00  0.00     0.181 C 
BRANCH   9  10
ATOM     10  C   UNL d   1      13.861  -4.903  12.217  0.00  0.00     0.042 C 
BRANCH  10  11
ATOM     11  C   UNL d   1      14.217  -4.666  10.755  0.00  0.00     0.116 C 
ATOM     12 CL   UNL d   1      12.771  -4.548   9.728  0.00  0.00    -0.130 Cl
ENDBRANCH  10  11
ENDBRANCH   9  10
ENDBRANCH   8   9
ENDBRANCH   1   8
BRANCH   1  13
ATOM     13  O   UNL d   1      16.507  -2.164  12.958  0.00  0.00    -0.292 OA
BRANCH  13  14
ATOM     14  C   UNL d   1      17.417  -1.498  13.816  0.00  0.00     0.181 C 
BRANCH  14  15
ATOM     15  C   UNL d   1      18.060  -2.525  14.739  0.00  0.00     0.042 C 
BRANCH  15  16
ATOM     16  C   UNL d   1      17.068  -3.227  15.657  0.00  0.00     0.116 C 
ATOM     17 CL   UNL d   1      15.843  -2.106  16.294  0.00  0.00    -0.130 Cl
ENDBRANCH  15  16
ENDBRANCH  14  15
ENDBRANCH  13  14
ENDBRANCH   1  13
TORSDOF 12
ENDMDL
MODEL 4
REMARK VINA RESULT:      -4.2      1.594      4.761
REMARK  12 active torsions:
REMARK  status: ('A' for Active; 'I' for Inactive)
REMARK    1  A    between atoms: P_4  and  O_5 
REMARK    2  A    between atoms: P_4  and  O_6 
REMARK    3  A    between atoms: P_4  and  O_7 
REMARK    4  A    between atoms: O_5  and  C_9 
REMARK    5  A    between atoms: O_6  and  C_10 
REMARK    6  A    between atoms: O_7  and  C_11 
REMARK    7  A    between atoms: C_9  and  C_12 
REMARK    8  A    between atoms: C_10  and  C_13 
REMARK    9  A    between atoms: C_11  and  C_14 
REMARK   10  A    between atoms: C_12  and  C_15 
REMARK   11  A    between atoms: C_13  and  C_16 
REMARK   12  A    between atoms: C_14  and  C_17 
ROOT
ATOM      1  P   UNL d   1      15.228  -1.380  12.705  0.00  0.00     0.477 P 
ATOM      2  O   UNL d   1      14.971  -0.116  13.475  0.00  0.00    -0.227 OA
ENDROOT
BRANCH   1   3
ATOM      3  O   UNL d   1      14.042  -2.479  12.809  0.00  0.00    -0.292 OA
BRANCH   3   4
ATOM      4  C   UNL d   1      14.357  -3.856  12.938  0.00  0.00     0.181 C 
BRANCH   4   5
ATOM      5  C   UNL d   1      14.534  -4.448  11.545  0.00  0.00     0.042 C 
BRANCH   5   6
ATOM      6  C   UNL d   1      13.834  -5.788  11.359  0.00  0.00     0.116 C 
ATOM      7 CL   UNL d   1      14.020  -6.840  12.781  0.00  0.00    -0.130 Cl
ENDBRANCH   5   6
ENDBRANCH   4   5
ENDBRANCH   3   4
ENDBRANCH   1   3
BRANCH   1   8
ATOM      8  O   UNL d   1      16.564  -2.182  13.149  0.00  0.00    -0.292 OA
BRANCH   8   9
ATOM      9  C   UNL d   1      17.287  -1.716  14.275  0.00  0.00     0.181 C 
BRANCH   9  10
ATOM     10  C   UNL d   1      16.928  -2.580  15.478  0.00  0.00     0.042 C 
BRANCH  10  11
ATOM     11  C   UNL d   1      17.369  -4.032  15.341  0.00  0.00     0.116 C 
ATOM     12 CL   UNL d   1      19.122  -4.173  15.081  0.00  0.00    -0.130 Cl
ENDBRANCH  10  11
ENDBRANCH   9  10
ENDBRANCH   8   9
ENDBRANCH   1   8
BRANCH   1  13
ATOM     13  O   UNL d   1      15.445  -1.168  11.113  0.00  0.00    -0.292 OA
BRANCH  13  14
ATOM     14  C   UNL d   1      15.676   0.145  10.632  0.00  0.00     0.181 C 
BRANCH  14  15
ATOM     15  C   UNL d   1      16.941   0.140   9.783  0.00  0.00     0.042 C 
BRANCH  15  16
ATOM     16  C   UNL d   1      18.178   0.620  10.530  0.00  0.00     0.116 C 
ATOM     17 CL   UNL d   1      17.762   1.428  12.058  0.00  0.00    -0.130 Cl
ENDBRANCH  15  16
ENDBRANCH  14  15
ENDBRANCH  13  14
ENDBRANCH   1  13
TORSDOF 12
ENDMDL
MODEL 5
REMARK VINA RESULT:      -4.0      1.615      5.551
REMARK  12 active torsions:
REMARK  status: ('A' for Active; 'I' for Inactive)
REMARK    1  A    between atoms: P_4  and  O_5 
REMARK    2  A    between atoms: P_4  and  O_6 
REMARK    3  A    between atoms: P_4  and  O_7 
REMARK    4  A    between atoms: O_5  and  C_9 
REMARK    5  A    between atoms: O_6  and  C_10 
REMARK    6  A    between atoms: O_7  and  C_11 
REMARK    7  A    between atoms: C_9  and  C_12 
REMARK    8  A    between atoms: C_10  and  C_13 
REMARK    9  A    between atoms: C_11  and  C_14 
REMARK   10  A    between atoms: C_12  and  C_15 
REMARK   11  A    between atoms: C_13  and  C_16 
REMARK   12  A    between atoms: C_14  and  C_17 
ROOT
ATOM      1  P   UNL d   1      15.417  -1.342  12.998  0.00  0.00     0.477 P 
ATOM      2  O   UNL d   1      15.139  -0.164  13.889  0.00  0.00    -0.227 OA
ENDROOT
BRANCH   1   3
ATOM      3  O   UNL d   1      16.568  -2.341  13.550  0.00  0.00    -0.292 OA
BRANCH   3   4
ATOM      4  C   UNL d   1      17.448  -1.914  14.578  0.00  0.00     0.181 C 
BRANCH   4   5
ATOM      5  C   UNL d   1      17.287  -2.843  15.775  0.00  0.00     0.042 C 
BRANCH   5   6
ATOM      6  C   UNL d   1      17.016  -4.291  15.390  0.00  0.00     0.116 C 
ATOM      7 CL   UNL d   1      18.514  -5.175  15.022  0.00  0.00    -0.130 Cl
ENDBRANCH   5   6
ENDBRANCH   4   5
ENDBRANCH   3   4
ENDBRANCH   1   3
BRANCH   1   8
ATOM      8  O   UNL d   1      15.899  -0.957  11.501  0.00  0.00    -0.292 OA
BRANCH   8   9
ATOM      9  C   UNL d   1      15.203   0.066  10.809  0.00  0.00     0.181 C 
BRANCH   9  10
ATOM     10  C   UNL d   1      16.211   1.104  10.330  0.00  0.00     0.042 C 
BRANCH  10  11
ATOM     11  C   UNL d   1      17.526   1.078  11.097  0.00  0.00     0.116 C 
ATOM     12 CL   UNL d   1      18.836   0.338  10.148  0.00  0.00    -0.130 Cl
ENDBRANCH  10  11
ENDBRANCH   9  10
ENDBRANCH   8   9
ENDBRANCH   1   8
BRANCH   1  13
ATOM     13  O   UNL d   1      14.140  -2.303  12.733  0.00  0.00    -0.292 OA
BRANCH  13  14
ATOM     14  C   UNL d   1      14.340  -3.706  12.728  0.00  0.00     0.181 C 
BRANCH  14  15
ATOM     15  C   UNL d   1      14.344  -4.194  11.286  0.00  0.00     0.042 C 
BRANCH  15  16
ATOM     16  C   UNL d   1      14.094  -5.690  11.147  0.00  0.00     0.116 C 
ATOM     17 CL   UNL d   1      15.549  -6.645  11.514  0.00  0.00    -0.130 Cl
ENDBRANCH  15  16
ENDBRANCH  14  15
ENDBRANCH  13  14
ENDBRANCH   1  13
TORSDOF 12
ENDMDL
MODEL 6
REMARK VINA RESULT:      -4.0      2.154      5.615
REMARK  12 active torsions:
REMARK  status: ('A' for Active; 'I' for Inactive)
REMARK    1  A    between atoms: P_4  and  O_5 
REMARK    2  A    between atoms: P_4  and  O_6 
REMARK    3  A    between atoms: P_4  and  O_7 
REMARK    4  A    between atoms: O_5  and  C_9 
REMARK    5  A    between atoms: O_6  and  C_10 
REMARK    6  A    between atoms: O_7  and  C_11 
REMARK    7  A    between atoms: C_9  and  C_12 
REMARK    8  A    between atoms: C_10  and  C_13 
REMARK    9  A    between atoms: C_11  and  C_14 
REMARK   10  A    between atoms: C_12  and  C_15 
REMARK   11  A    between atoms: C_13  and  C_16 
REMARK   12  A    between atoms: C_14  and  C_17 
ROOT
ATOM      1  P   UNL d   1      15.430  -2.674  13.491  0.00  0.00     0.477 P 
ATOM      2  O   UNL d   1      14.111  -1.983  13.295  0.00  0.00    -0.227 OA
ENDROOT
BRANCH   1   3
ATOM      3  O   UNL d   1      15.630  -3.329  14.960  0.00  0.00    -0.292 OA
BRANCH   3   4
ATOM      4  C   UNL d   1      16.931  -3.646  15.427  0.00  0.00     0.181 C 
BRANCH   4   5
ATOM      5  C   UNL d   1      17.128  -5.154  15.335  0.00  0.00     0.042 C 
BRANCH   5   6
ATOM      6  C   UNL d   1      18.562  -5.562  15.026  0.00  0.00     0.116 C 
ATOM      7 CL   UNL d   1      19.602  -4.156  14.703  0.00  0.00    -0.130 Cl
ENDBRANCH   5   6
ENDBRANCH   4   5
ENDBRANCH   3   4
ENDBRANCH   1   3
BRANCH   1   8
ATOM      8  O   UNL d   1      16.726  -1.723  13.292  0.00  0.00    -0.292 OA
BRANCH   8   9
ATOM      9  C   UNL d   1      16.520  -0.358  12.973  0.00  0.00     0.181 C 
BRANCH   9  10
ATOM     10  C   UNL d   1      16.667  -0.180  11.467  0.00  0.00     0.042 C 
BRANCH  10  11
ATOM     11  C   UNL d   1      17.534   1.010  11.074  0.00  0.00     0.116 C 
ATOM     12 CL   UNL d   1      19.041   0.502  10.279  0.00  0.00    -0.130 Cl
ENDBRANCH  10  11
ENDBRANCH   9  10
ENDBRANCH   8   9
ENDBRANCH   1   8
BRANCH   1  13
ATOM     13  O   UNL d   1      15.713  -3.893  12.462  0.00  0.00    -0.292 OA
BRANCH  13  14
ATOM     14  C   UNL d   1      14.829  -4.072  11.368  0.00  0.00     0.181 C 
BRANCH  14  15
ATOM     15  C   UNL d   1      13.855  -5.193  11.704  0.00  0.00     0.042 C 
BRANCH  15  16
ATOM     16  C   UNL d   1      14.447  -6.265  12.609  0.00  0.00     0.116 C 
ATOM     17 CL   UNL d   1      13.715  -6.247  14.230  0.00  0.00    -0.130 Cl
ENDBRANCH  15  16
ENDBRANCH  14  15
ENDBRANCH  13  14
ENDBRANCH   1  13
TORSDOF 12
ENDMDL
MODEL 7
REMARK VINA RESULT:      -3.9      2.397      5.550
REMARK  12 active torsions:
REMARK  status: ('A' for Active; 'I' for Inactive)
REMARK    1  A    between atoms: P_4  and  O_5 
REMARK    2  A    between atoms: P_4  and  O_6 
REMARK    3  A    between atoms: P_4  and  O_7 
REMARK    4  A    between atoms: O_5  and  C_9 
REMARK    5  A    between atoms: O_6  and  C_10 
REMARK    6  A    between atoms: O_7  and  C_11 
REMARK    7  A    between atoms: C_9  and  C_12 
REMARK    8  A    between atoms: C_10  and  C_13 
REMARK    9  A    between atoms: C_11  and  C_14 
REMARK   10  A    between atoms: C_12  and  C_15 
REMARK   11  A    between atoms: C_13  and  C_16 
REMARK   12  A    between atoms: C_14  and  C_17 
ROOT
ATOM      1  P   UNL d   1      15.398  -2.897  14.624  0.00  0.00     0.477 P 
ATOM      2  O   UNL d   1      15.454  -2.267  15.987  0.00  0.00    -0.227 OA
ENDROOT
BRANCH   1   3
ATOM      3  O   UNL d   1      14.919  -4.445  14.623  0.00  0.00    -0.292 OA
BRANCH   3   4
ATOM      4  C   UNL d   1      15.276  -5.300  13.549  0.00  0.00     0.181 C 
BRANCH   4   5
ATOM      5  C   UNL d   1      14.015  -5.974  13.022  0.00  0.00     0.042 C 
BRANCH   5   6
ATOM      6  C   UNL d   1      13.813  -7.387  13.550  0.00  0.00     0.116 C 
ATOM      7 CL   UNL d   1      12.459  -7.483  14.699  0.00  0.00    -0.130 Cl
ENDBRANCH   5   6
ENDBRANCH   4   5
ENDBRANCH   3   4
ENDBRANCH   1   3
BRANCH   1   8
ATOM      8  O   UNL d   1      16.808  -2.909  13.827  0.00  0.00    -0.292 OA
BRANCH   8   9
ATOM      9  C   UNL d   1      17.961  -2.415  14.487  0.00  0.00     0.181 C 
BRANCH   9  10
ATOM     10  C   UNL d   1      18.540  -3.524  15.357  0.00  0.00     0.042 C 
BRANCH  10  11
ATOM     11  C   UNL d   1      18.935  -4.770  14.575  0.00  0.00     0.116 C 
ATOM     12 CL   UNL d   1      18.331  -6.257  15.342  0.00  0.00    -0.130 Cl
ENDBRANCH  10  11
ENDBRANCH   9  10
ENDBRANCH   8   9
ENDBRANCH   1   8
BRANCH   1  13
ATOM     13  O   UNL d   1      14.398  -2.163  13.582  0.00  0.00    -0.292 OA
BRANCH  13  14
ATOM     14  C   UNL d   1      14.913  -1.757  12.325  0.00  0.00     0.181 C 
BRANCH  14  15
ATOM     15  C   UNL d   1      15.177  -0.257  12.366  0.00  0.00     0.042 C 
BRANCH  15  16
ATOM     16  C   UNL d   1      16.587   0.126  11.937  0.00  0.00     0.116 C 
ATOM     17 CL   UNL d   1      16.582   1.207  10.524  0.00  0.00    -0.130 Cl
ENDBRANCH  15  16
ENDBRANCH  14  15
ENDBRANCH  13  14
ENDBRANCH   1  13
TORSDOF 12
ENDMDL
MODEL 8
REMARK VINA RESULT:      -3.9      1.732      2.140
REMARK  12 active torsions:
REMARK  status: ('A' for Active; 'I' for Inactive)
REMARK    1  A    between atoms: P_4  and  O_5 
REMARK    2  A    between atoms: P_4  and  O_6 
REMARK    3  A    between atoms: P_4  and  O_7 
REMARK    4  A    between atoms: O_5  and  C_9 
REMARK    5  A    between atoms: O_6  and  C_10 
REMARK    6  A    between atoms: O_7  and  C_11 
REMARK    7  A    between atoms: C_9  and  C_12 
REMARK    8  A    between atoms: C_10  and  C_13 
REMARK    9  A    between atoms: C_11  and  C_14 
REMARK   10  A    between atoms: C_12  and  C_15 
REMARK   11  A    between atoms: C_13  and  C_16 
REMARK   12  A    between atoms: C_14  and  C_17 
ROOT
ATOM      1  P   UNL d   1      14.684  -2.934  11.969  0.00  0.00     0.477 P 
ATOM      2  O   UNL d   1      13.564  -3.568  11.193  0.00  0.00    -0.227 OA
ENDROOT
BRANCH   1   3
ATOM      3  O   UNL d   1      15.418  -1.708  11.202  0.00  0.00    -0.292 OA
BRANCH   3   4
ATOM      4  C   UNL d   1      14.677  -0.558  10.827  0.00  0.00     0.181 C 
BRANCH   4   5
ATOM      5  C   UNL d   1      15.651   0.523  10.374  0.00  0.00     0.042 C 
BRANCH   5   6
ATOM      6  C   UNL d   1      17.073   0.310  10.873  0.00  0.00     0.116 C 
ATOM      7 CL   UNL d   1      17.258   0.778  12.579  0.00  0.00    -0.130 Cl
ENDBRANCH   5   6
ENDBRANCH   4   5
ENDBRANCH   3   4
ENDBRANCH   1   3
BRANCH   1   8
ATOM      8  O   UNL d   1      15.888  -3.943  12.364  0.00  0.00    -0.292 OA
BRANCH   8   9
ATOM      9  C   UNL d   1      15.629  -5.336  12.363  0.00  0.00     0.181 C 
BRANCH   9  10
ATOM     10  C   UNL d   1      15.738  -5.854  13.792  0.00  0.00     0.042 C 
BRANCH  10  11
ATOM     11  C   UNL d   1      17.111  -6.420  14.133  0.00  0.00     0.116 C 
ATOM     12 CL   UNL d   1      17.411  -6.428  15.886  0.00  0.00    -0.130 Cl
ENDBRANCH  10  11
ENDBRANCH   9  10
ENDBRANCH   8   9
ENDBRANCH   1   8
BRANCH   1  13
ATOM     13  O   UNL d   1      14.247  -2.312  13.399  0.00  0.00    -0.292 OA
BRANCH  13  14
ATOM     14  C   UNL d   1      15.246  -1.719  14.211  0.00  0.00     0.181 C 
BRANCH  14  15
ATOM     15  C   UNL d   1      15.423  -2.566  15.465  0.00  0.00     0.042 C 
BRANCH  15  16
ATOM     16  C   UNL d   1      16.878  -2.877  15.791  0.00  0.00     0.116 C 
ATOM     17 CL   UNL d   1      17.982  -2.305  14.520  0.00  0.00    -0.130 Cl
ENDBRANCH  15  16
ENDBRANCH  14  15
ENDBRANCH  13  14
ENDBRANCH   1  13
TORSDOF 12
ENDMDL
MODEL 9
REMARK VINA RESULT:      -3.9      2.630      3.401
REMARK  12 active torsions:
REMARK  status: ('A' for Active; 'I' for Inactive)
REMARK    1  A    between atoms: P_4  and  O_5 
REMARK    2  A    between atoms: P_4  and  O_6 
REMARK    3  A    between atoms: P_4  and  O_7 
REMARK    4  A    between atoms: O_5  and  C_9 
REMARK    5  A    between atoms: O_6  and  C_10 
REMARK    6  A    between atoms: O_7  and  C_11 
REMARK    7  A    between atoms: C_9  and  C_12 
REMARK    8  A    between atoms: C_10  and  C_13 
REMARK    9  A    between atoms: C_11  and  C_14 
REMARK   10  A    between atoms: C_12  and  C_15 
REMARK   11  A    between atoms: C_13  and  C_16 
REMARK   12  A    between atoms: C_14  and  C_17 
ROOT
ATOM      1  P   UNL d   1      16.327  -2.757  15.380  0.00  0.00     0.477 P 
ATOM      2  O   UNL d   1      16.035  -2.079  16.688  0.00  0.00    -0.227 OA
ENDROOT
BRANCH   1   3
ATOM      3  O   UNL d   1      16.752  -1.747  14.185  0.00  0.00    -0.292 OA
BRANCH   3   4
ATOM      4  C   UNL d   1      15.770  -0.951  13.543  0.00  0.00     0.181 C 
BRANCH   4   5
ATOM      5  C   UNL d   1      16.469   0.173  12.788  0.00  0.00     0.042 C 
BRANCH   5   6
ATOM      6  C   UNL d   1      16.542  -0.056  11.284  0.00  0.00     0.116 C 
ATOM      7 CL   UNL d   1      18.139   0.361  10.622  0.00  0.00    -0.130 Cl
ENDBRANCH   5   6
ENDBRANCH   4   5
ENDBRANCH   3   4
ENDBRANCH   1   3
BRANCH   1   8
ATOM      8  O   UNL d   1      15.092  -3.609  14.770  0.00  0.00    -0.292 OA
BRANCH   8   9
ATOM      9  C   UNL d   1      15.359  -4.890  14.226  0.00  0.00     0.181 C 
BRANCH   9  10
ATOM     10  C   UNL d   1      15.601  -4.744  12.728  0.00  0.00     0.042 C 
BRANCH  10  11
ATOM     11  C   UNL d   1      14.333  -4.472  11.928  0.00  0.00     0.116 C 
ATOM     12 CL   UNL d   1      14.483  -3.018  10.916  0.00  0.00    -0.130 Cl
ENDBRANCH  10  11
ENDBRANCH   9  10
ENDBRANCH   8   9
ENDBRANCH   1   8
BRANCH   1  13
ATOM     13  O   UNL d   1      17.526  -3.845  15.437  0.00  0.00    -0.292 OA
BRANCH  13  14
ATOM     14  C   UNL d   1      18.761  -3.521  14.821  0.00  0.00     0.181 C 
BRANCH  14  15
ATOM     15  C   UNL d   1      19.621  -4.777  14.760  0.00  0.00     0.042 C 
BRANCH  15  16
ATOM     16  C   UNL d   1      18.823  -6.069  14.866  0.00  0.00     0.116 C 
ATOM     17 CL   UNL d   1      19.875  -7.502  14.895  0.00  0.00    -0.130 Cl
ENDBRANCH  15  16
ENDBRANCH  14  15
ENDBRANCH  13  14
ENDBRANCH   1  13
TORSDOF 12
ENDMDL
