MODEL 1
REMARK VINA RESULT:      -3.9      0.000      0.000
REMARK  12 active torsions:
REMARK  status: ('A' for Active; 'I' for Inactive)
REMARK    1  A    between atoms: P_4  and  O_5 
REMARK    2  A    between atoms: P_4  and  O_6 
REMARK    3  A    between atoms: P_4  and  O_7 
REMARK    4  A    between atoms: O_5  and  C_9 
REMARK    5  A    between atoms: O_6  and  C_10 
REMARK    6  A    between atoms: O_7  and  C_11 
REMARK    7  A    between atoms: C_9  and  C_12 
REMARK    8  A    between atoms: C_10  and  C_13 
REMARK    9  A    between atoms: C_11  and  C_14 
REMARK   10  A    between atoms: C_12  and  C_15 
REMARK   11  A    between atoms: C_13  and  C_16 
REMARK   12  A    between atoms: C_14  and  C_17 
ROOT
ATOM      1  P   UNL d   1      10.639  -2.761   7.271  0.00  0.00     0.477 P 
ATOM      2  O   UNL d   1      11.103  -1.332   7.300  0.00  0.00    -0.227 OA
ENDROOT
BRANCH   1   3
ATOM      3  O   UNL d   1       9.037  -2.940   7.093  0.00  0.00    -0.292 OA
BRANCH   3   4
ATOM      4  C   UNL d   1       8.176  -1.822   7.238  0.00  0.00     0.181 C 
BRANCH   4   5
ATOM      5  C   UNL d   1       7.354  -2.002   8.508  0.00  0.00     0.042 C 
BRANCH   5   6
ATOM      6  C   UNL d   1       6.264  -0.953   8.682  0.00  0.00     0.116 C 
ATOM      7 CL   UNL d   1       6.891   0.549   9.398  0.00  0.00    -0.130 Cl
ENDBRANCH   5   6
ENDBRANCH   4   5
ENDBRANCH   3   4
ENDBRANCH   1   3
BRANCH   1   8
ATOM      8  O   UNL d   1      10.995  -3.613   8.602  0.00  0.00    -0.292 OA
BRANCH   8   9
ATOM      9  C   UNL d   1      10.011  -4.488   9.127  0.00  0.00     0.181 C 
BRANCH   9  10
ATOM     10  C   UNL d   1      10.008  -4.365  10.646  0.00  0.00     0.042 C 
BRANCH  10  11
ATOM     11  C   UNL d   1       8.615  -4.413  11.260  0.00  0.00     0.116 C 
ATOM     12 CL   UNL d   1       8.244  -2.941  12.186  0.00  0.00    -0.130 Cl
ENDBRANCH  10  11
ENDBRANCH   9  10
ENDBRANCH   8   9
ENDBRANCH   1   8
BRANCH   1  13
ATOM     13  O   UNL d   1      11.281  -3.656   6.084  0.00  0.00    -0.292 OA
BRANCH  13  14
ATOM     14  C   UNL d   1      11.635  -3.014   4.870  0.00  0.00     0.181 C 
BRANCH  14  15
ATOM     15  C   UNL d   1      11.221  -3.906   3.707  0.00  0.00     0.042 C 
BRANCH  15  16
ATOM     16  C   UNL d   1      10.295  -5.046   4.111  0.00  0.00     0.116 C 
ATOM     17 CL   UNL d   1       8.582  -4.576   4.019  0.00  0.00    -0.130 Cl
ENDBRANCH  15  16
ENDBRANCH  14  15
ENDBRANCH  13  14
ENDBRANCH   1  13
TORSDOF 12
ENDMDL
MODEL 2
REMARK VINA RESULT:      -3.7      3.311      6.164
REMARK  12 active torsions:
REMARK  status: ('A' for Active; 'I' for Inactive)
REMARK    1  A    between atoms: P_4  and  O_5 
REMARK    2  A    between atoms: P_4  and  O_6 
REMARK    3  A    between atoms: P_4  and  O_7 
REMARK    4  A    between atoms: O_5  and  C_9 
REMARK    5  A    between atoms: O_6  and  C_10 
REMARK    6  A    between atoms: O_7  and  C_11 
REMARK    7  A    between atoms: C_9  and  C_12 
REMARK    8  A    between atoms: C_10  and  C_13 
REMARK    9  A    between atoms: C_11  and  C_14 
REMARK   10  A    between atoms: C_12  and  C_15 
REMARK   11  A    between atoms: C_13  and  C_16 
REMARK   12  A    between atoms: C_14  and  C_17 
ROOT
ATOM      1  P   UNL d   1       6.279  -1.600   8.359  0.00  0.00     0.477 P 
ATOM      2  O   UNL d   1       5.393  -2.356   7.409  0.00  0.00    -0.227 OA
ENDROOT
BRANCH   1   3
ATOM      3  O   UNL d   1       5.592  -0.282   9.007  0.00  0.00    -0.292 OA
BRANCH   3   4
ATOM      4  C   UNL d   1       6.400   0.736   9.574  0.00  0.00     0.181 C 
BRANCH   4   5
ATOM      5  C   UNL d   1       5.703   2.077   9.381  0.00  0.00     0.042 C 
BRANCH   5   6
ATOM      6  C   UNL d   1       4.217   1.951   9.074  0.00  0.00     0.116 C 
ATOM      7 CL   UNL d   1       3.206   2.556  10.406  0.00  0.00    -0.130 Cl
ENDBRANCH   5   6
ENDBRANCH   4   5
ENDBRANCH   3   4
ENDBRANCH   1   3
BRANCH   1   8
ATOM      8  O   UNL d   1       7.659  -1.057   7.708  0.00  0.00    -0.292 OA
BRANCH   8   9
ATOM      9  C   UNL d   1       8.559  -2.000   7.151  0.00  0.00     0.181 C 
BRANCH   9  10
ATOM     10  C   UNL d   1       9.897  -1.312   6.906  0.00  0.00     0.042 C 
BRANCH  10  11
ATOM     11  C   UNL d   1      11.088  -2.262   6.942  0.00  0.00     0.116 C 
ATOM     12 CL   UNL d   1      11.686  -2.642   5.311  0.00  0.00    -0.130 Cl
ENDBRANCH  10  11
ENDBRANCH   9  10
ENDBRANCH   8   9
ENDBRANCH   1   8
BRANCH   1  13
ATOM     13  O   UNL d   1       6.791  -2.458   9.633  0.00  0.00    -0.292 OA
BRANCH  13  14
ATOM     14  C   UNL d   1       5.895  -2.667  10.711  0.00  0.00     0.181 C 
BRANCH  14  15
ATOM     15  C   UNL d   1       6.603  -2.311  12.012  0.00  0.00     0.042 C 
BRANCH  15  16
ATOM     16  C   UNL d   1       7.163  -3.518  12.752  0.00  0.00     0.116 C 
ATOM     17 CL   UNL d   1       8.941  -3.524  12.768  0.00  0.00    -0.130 Cl
ENDBRANCH  15  16
ENDBRANCH  14  15
ENDBRANCH  13  14
ENDBRANCH   1  13
TORSDOF 12
ENDMDL
MODEL 3
REMARK VINA RESULT:      -3.7      1.748      3.851
REMARK  12 active torsions:
REMARK  status: ('A' for Active; 'I' for Inactive)
REMARK    1  A    between atoms: P_4  and  O_5 
REMARK    2  A    between atoms: P_4  and  O_6 
REMARK    3  A    between atoms: P_4  and  O_7 
REMARK    4  A    between atoms: O_5  and  C_9 
REMARK    5  A    between atoms: O_6  and  C_10 
REMARK    6  A    between atoms: O_7  and  C_11 
REMARK    7  A    between atoms: C_9  and  C_12 
REMARK    8  A    between atoms: C_10  and  C_13 
REMARK    9  A    between atoms: C_11  and  C_14 
REMARK   10  A    between atoms: C_12  and  C_15 
REMARK   11  A    between atoms: C_13  and  C_16 
REMARK   12  A    between atoms: C_14  and  C_17 
ROOT
ATOM      1  P   UNL d   1       8.428  -2.386   7.184  0.00  0.00     0.477 P 
ATOM      2  O   UNL d   1       7.693  -3.137   6.110  0.00  0.00    -0.227 OA
ENDROOT
BRANCH   1   3
ATOM      3  O   UNL d   1       8.724  -3.251   8.522  0.00  0.00    -0.292 OA
BRANCH   3   4
ATOM      4  C   UNL d   1       8.147  -4.537   8.680  0.00  0.00     0.181 C 
BRANCH   4   5
ATOM      5  C   UNL d   1       7.780  -4.731  10.146  0.00  0.00     0.042 C 
BRANCH   5   6
ATOM      6  C   UNL d   1       8.090  -3.521  11.016  0.00  0.00     0.116 C 
ATOM      7 CL   UNL d   1       6.707  -3.060  12.035  0.00  0.00    -0.130 Cl
ENDBRANCH   5   6
ENDBRANCH   4   5
ENDBRANCH   3   4
ENDBRANCH   1   3
BRANCH   1   8
ATOM      8  O   UNL d   1       7.670  -1.059   7.720  0.00  0.00    -0.292 OA
BRANCH   8   9
ATOM      9  C   UNL d   1       6.465  -1.217   8.449  0.00  0.00     0.181 C 
BRANCH   9  10
ATOM     10  C   UNL d   1       6.513  -0.313   9.675  0.00  0.00     0.042 C 
BRANCH  10  11
ATOM     11  C   UNL d   1       6.911   1.123   9.360  0.00  0.00     0.116 C 
ATOM     12 CL   UNL d   1       5.517   2.227   9.417  0.00  0.00    -0.130 Cl
ENDBRANCH  10  11
ENDBRANCH   9  10
ENDBRANCH   8   9
ENDBRANCH   1   8
BRANCH   1  13
ATOM     13  O   UNL d   1       9.879  -1.820   6.738  0.00  0.00    -0.292 OA
BRANCH  13  14
ATOM     14  C   UNL d   1      11.000  -2.682   6.841  0.00  0.00     0.181 C 
BRANCH  14  15
ATOM     15  C   UNL d   1      11.724  -2.704   5.501  0.00  0.00     0.042 C 
BRANCH  15  16
ATOM     16  C   UNL d   1      11.060  -3.600   4.464  0.00  0.00     0.116 C 
ATOM     17 CL   UNL d   1      10.397  -5.081   5.191  0.00  0.00    -0.130 Cl
ENDBRANCH  15  16
ENDBRANCH  14  15
ENDBRANCH  13  14
ENDBRANCH   1  13
TORSDOF 12
ENDMDL
MODEL 4
REMARK VINA RESULT:      -3.7      1.301      5.539
REMARK  12 active torsions:
REMARK  status: ('A' for Active; 'I' for Inactive)
REMARK    1  A    between atoms: P_4  and  O_5 
REMARK    2  A    between atoms: P_4  and  O_6 
REMARK    3  A    between atoms: P_4  and  O_7 
REMARK    4  A    between atoms: O_5  and  C_9 
REMARK    5  A    between atoms: O_6  and  C_10 
REMARK    6  A    between atoms: O_7  and  C_11 
REMARK    7  A    between atoms: C_9  and  C_12 
REMARK    8  A    between atoms: C_10  and  C_13 
REMARK    9  A    between atoms: C_11  and  C_14 
REMARK   10  A    between atoms: C_12  and  C_15 
REMARK   11  A    between atoms: C_13  and  C_16 
REMARK   12  A    between atoms: C_14  and  C_17 
ROOT
ATOM      1  P   UNL d   1      10.685  -2.728   7.258  0.00  0.00     0.477 P 
ATOM      2  O   UNL d   1      11.130  -1.294   7.268  0.00  0.00    -0.227 OA
ENDROOT
BRANCH   1   3
ATOM      3  O   UNL d   1      11.377  -3.635   6.106  0.00  0.00    -0.292 OA
BRANCH   3   4
ATOM      4  C   UNL d   1      10.578  -4.248   5.107  0.00  0.00     0.181 C 
BRANCH   4   5
ATOM      5  C   UNL d   1      11.168  -3.919   3.741  0.00  0.00     0.042 C 
BRANCH   5   6
ATOM      6  C   UNL d   1      10.827  -4.943   2.668  0.00  0.00     0.116 C 
ATOM      7 CL   UNL d   1      10.591  -4.188   1.075  0.00  0.00    -0.130 Cl
ENDBRANCH   5   6
ENDBRANCH   4   5
ENDBRANCH   3   4
ENDBRANCH   1   3
BRANCH   1   8
ATOM      8  O   UNL d   1       9.094  -2.941   7.039  0.00  0.00    -0.292 OA
BRANCH   8   9
ATOM      9  C   UNL d   1       8.236  -1.824   7.198  0.00  0.00     0.181 C 
BRANCH   9  10
ATOM     10  C   UNL d   1       7.397  -2.028   8.454  0.00  0.00     0.042 C 
BRANCH  10  11
ATOM     11  C   UNL d   1       6.292  -0.993   8.625  0.00  0.00     0.116 C 
ATOM     12 CL   UNL d   1       6.893   0.507   9.368  0.00  0.00    -0.130 Cl
ENDBRANCH  10  11
ENDBRANCH   9  10
ENDBRANCH   8   9
ENDBRANCH   1   8
BRANCH   1  13
ATOM     13  O   UNL d   1      10.973  -3.534   8.634  0.00  0.00    -0.292 OA
BRANCH  13  14
ATOM     14  C   UNL d   1      10.037  -4.514   9.051  0.00  0.00     0.181 C 
BRANCH  14  15
ATOM     15  C   UNL d   1       9.876  -4.424  10.563  0.00  0.00     0.042 C 
BRANCH  15  16
ATOM     16  C   UNL d   1       9.755  -5.780  11.245  0.00  0.00     0.116 C 
ATOM     17 CL   UNL d   1       8.167  -5.997  12.017  0.00  0.00    -0.130 Cl
ENDBRANCH  15  16
ENDBRANCH  14  15
ENDBRANCH  13  14
ENDBRANCH   1  13
TORSDOF 12
ENDMDL
MODEL 5
REMARK VINA RESULT:      -3.6      3.933      7.166
REMARK  12 active torsions:
REMARK  status: ('A' for Active; 'I' for Inactive)
REMARK    1  A    between atoms: P_4  and  O_5 
REMARK    2  A    between atoms: P_4  and  O_6 
REMARK    3  A    between atoms: P_4  and  O_7 
REMARK    4  A    between atoms: O_5  and  C_9 
REMARK    5  A    between atoms: O_6  and  C_10 
REMARK    6  A    between atoms: O_7  and  C_11 
REMARK    7  A    between atoms: C_9  and  C_12 
REMARK    8  A    between atoms: C_10  and  C_13 
REMARK    9  A    between atoms: C_11  and  C_14 
REMARK   10  A    between atoms: C_12  and  C_15 
REMARK   11  A    between atoms: C_13  and  C_16 
REMARK   12  A    between atoms: C_14  and  C_17 
ROOT
ATOM      1  P   UNL d   1       6.328  -0.241   9.358  0.00  0.00     0.477 P 
ATOM      2  O   UNL d   1       7.495   0.700   9.260  0.00  0.00    -0.227 OA
ENDROOT
BRANCH   1   3
ATOM      3  O   UNL d   1       6.180  -0.974  10.796  0.00  0.00    -0.292 OA
BRANCH   3   4
ATOM      4  C   UNL d   1       6.955  -2.124  11.092  0.00  0.00     0.181 C 
BRANCH   4   5
ATOM      5  C   UNL d   1       6.107  -3.087  11.913  0.00  0.00     0.042 C 
BRANCH   5   6
ATOM      6  C   UNL d   1       6.924  -3.994  12.823  0.00  0.00     0.116 C 
ATOM      7 CL   UNL d   1       7.097  -3.317  14.459  0.00  0.00    -0.130 Cl
ENDBRANCH   5   6
ENDBRANCH   4   5
ENDBRANCH   3   4
ENDBRANCH   1   3
BRANCH   1   8
ATOM      8  O   UNL d   1       6.347  -1.454   8.285  0.00  0.00    -0.292 OA
BRANCH   8   9
ATOM      9  C   UNL d   1       7.388  -1.489   7.324  0.00  0.00     0.181 C 
BRANCH   9  10
ATOM     10  C   UNL d   1       8.409  -2.539   7.747  0.00  0.00     0.042 C 
BRANCH  10  11
ATOM     11  C   UNL d   1       9.523  -2.751   6.730  0.00  0.00     0.116 C 
ATOM     12 CL   UNL d   1      11.133  -2.680   7.482  0.00  0.00    -0.130 Cl
ENDBRANCH  10  11
ENDBRANCH   9  10
ENDBRANCH   8   9
ENDBRANCH   1   8
BRANCH   1  13
ATOM     13  O   UNL d   1       4.883   0.447   9.103  0.00  0.00    -0.292 OA
BRANCH  13  14
ATOM     14  C   UNL d   1       4.739   1.832   9.367  0.00  0.00     0.181 C 
BRANCH  14  15
ATOM     15  C   UNL d   1       3.288   2.227   9.123  0.00  0.00     0.042 C 
BRANCH  15  16
ATOM     16  C   UNL d   1       2.600   2.812  10.350  0.00  0.00     0.116 C 
ATOM     17 CL   UNL d   1       1.905   1.548  11.390  0.00  0.00    -0.130 Cl
ENDBRANCH  15  16
ENDBRANCH  14  15
ENDBRANCH  13  14
ENDBRANCH   1  13
TORSDOF 12
ENDMDL
MODEL 6
REMARK VINA RESULT:      -3.6      3.885      6.954
REMARK  12 active torsions:
REMARK  status: ('A' for Active; 'I' for Inactive)
REMARK    1  A    between atoms: P_4  and  O_5 
REMARK    2  A    between atoms: P_4  and  O_6 
REMARK    3  A    between atoms: P_4  and  O_7 
REMARK    4  A    between atoms: O_5  and  C_9 
REMARK    5  A    between atoms: O_6  and  C_10 
REMARK    6  A    between atoms: O_7  and  C_11 
REMARK    7  A    between atoms: C_9  and  C_12 
REMARK    8  A    between atoms: C_10  and  C_13 
REMARK    9  A    between atoms: C_11  and  C_14 
REMARK   10  A    between atoms: C_12  and  C_15 
REMARK   11  A    between atoms: C_13  and  C_16 
REMARK   12  A    between atoms: C_14  and  C_17 
ROOT
ATOM      1  P   UNL d   1       6.354  -0.109   9.372  0.00  0.00     0.477 P 
ATOM      2  O   UNL d   1       7.484   0.880   9.340  0.00  0.00    -0.227 OA
ENDROOT
BRANCH   1   3
ATOM      3  O   UNL d   1       6.487  -1.311   8.293  0.00  0.00    -0.292 OA
BRANCH   3   4
ATOM      4  C   UNL d   1       7.590  -1.349   7.403  0.00  0.00     0.181 C 
BRANCH   4   5
ATOM      5  C   UNL d   1       8.382  -2.625   7.661  0.00  0.00     0.042 C 
BRANCH   5   6
ATOM      6  C   UNL d   1       9.715  -2.674   6.927  0.00  0.00     0.116 C 
ATOM      7 CL   UNL d   1      10.449  -1.062   6.769  0.00  0.00    -0.130 Cl
ENDBRANCH   5   6
ENDBRANCH   4   5
ENDBRANCH   3   4
ENDBRANCH   1   3
BRANCH   1   8
ATOM      8  O   UNL d   1       4.891   0.528   9.090  0.00  0.00    -0.292 OA
BRANCH   8   9
ATOM      9  C   UNL d   1       4.679   1.894   9.401  0.00  0.00     0.181 C 
BRANCH   9  10
ATOM     10  C   UNL d   1       3.233   2.250   9.076  0.00  0.00     0.042 C 
BRANCH  10  11
ATOM     11  C   UNL d   1       2.460   2.811  10.263  0.00  0.00     0.116 C 
ATOM     12 CL   UNL d   1       1.966   1.535  11.399  0.00  0.00    -0.130 Cl
ENDBRANCH  10  11
ENDBRANCH   9  10
ENDBRANCH   8   9
ENDBRANCH   1   8
BRANCH   1  13
ATOM     13  O   UNL d   1       6.155  -0.861  10.793  0.00  0.00    -0.292 OA
BRANCH  13  14
ATOM     14  C   UNL d   1       6.356  -2.263  10.849  0.00  0.00     0.181 C 
BRANCH  14  15
ATOM     15  C   UNL d   1       7.185  -2.588  12.085  0.00  0.00     0.042 C 
BRANCH  15  16
ATOM     16  C   UNL d   1       7.803  -3.980  12.056  0.00  0.00     0.116 C 
ATOM     17 CL   UNL d   1       9.561  -3.934  12.323  0.00  0.00    -0.130 Cl
ENDBRANCH  15  16
ENDBRANCH  14  15
ENDBRANCH  13  14
ENDBRANCH   1  13
TORSDOF 12
ENDMDL
MODEL 7
REMARK VINA RESULT:      -3.6      3.520      6.384
REMARK  12 active torsions:
REMARK  status: ('A' for Active; 'I' for Inactive)
REMARK    1  A    between atoms: P_4  and  O_5 
REMARK    2  A    between atoms: P_4  and  O_6 
REMARK    3  A    between atoms: P_4  and  O_7 
REMARK    4  A    between atoms: O_5  and  C_9 
REMARK    5  A    between atoms: O_6  and  C_10 
REMARK    6  A    between atoms: O_7  and  C_11 
REMARK    7  A    between atoms: C_9  and  C_12 
REMARK    8  A    between atoms: C_10  and  C_13 
REMARK    9  A    between atoms: C_11  and  C_14 
REMARK   10  A    between atoms: C_12  and  C_15 
REMARK   11  A    between atoms: C_13  and  C_16 
REMARK   12  A    between atoms: C_14  and  C_17 
ROOT
ATOM      1  P   UNL d   1       5.683  -1.589   9.498  0.00  0.00     0.477 P 
ATOM      2  O   UNL d   1       4.584  -1.983   8.554  0.00  0.00    -0.227 OA
ENDROOT
BRANCH   1   3
ATOM      3  O   UNL d   1       7.171  -1.664   8.860  0.00  0.00    -0.292 OA
BRANCH   3   4
ATOM      4  C   UNL d   1       7.402  -2.413   7.678  0.00  0.00     0.181 C 
BRANCH   4   5
ATOM      5  C   UNL d   1       8.767  -2.033   7.118  0.00  0.00     0.042 C 
BRANCH   5   6
ATOM      6  C   UNL d   1       9.763  -3.184   7.107  0.00  0.00     0.116 C 
ATOM      7 CL   UNL d   1      11.367  -2.674   6.536  0.00  0.00    -0.130 Cl
ENDBRANCH   5   6
ENDBRANCH   4   5
ENDBRANCH   3   4
ENDBRANCH   1   3
BRANCH   1   8
ATOM      8  O   UNL d   1       5.773  -2.488  10.843  0.00  0.00    -0.292 OA
BRANCH   8   9
ATOM      9  C   UNL d   1       6.666  -2.084  11.866  0.00  0.00     0.181 C 
BRANCH   9  10
ATOM     10  C   UNL d   1       7.124  -3.319  12.632  0.00  0.00     0.042 C 
BRANCH  10  11
ATOM     11  C   UNL d   1       8.607  -3.626  12.466  0.00  0.00     0.116 C 
ATOM     12 CL   UNL d   1       9.031  -3.969  10.773  0.00  0.00    -0.130 Cl
ENDBRANCH  10  11
ENDBRANCH   9  10
ENDBRANCH   8   9
ENDBRANCH   1   8
BRANCH   1  13
ATOM     13  O   UNL d   1       5.567  -0.080  10.077  0.00  0.00    -0.292 OA
BRANCH  13  14
ATOM     14  C   UNL d   1       6.356   0.935   9.480  0.00  0.00     0.181 C 
BRANCH  14  15
ATOM     15  C   UNL d   1       5.561   2.234   9.478  0.00  0.00     0.042 C 
BRANCH  15  16
ATOM     16  C   UNL d   1       4.090   2.050   9.132  0.00  0.00     0.116 C 
ATOM     17 CL   UNL d   1       3.023   2.853  10.306  0.00  0.00    -0.130 Cl
ENDBRANCH  15  16
ENDBRANCH  14  15
ENDBRANCH  13  14
ENDBRANCH   1  13
TORSDOF 12
ENDMDL
MODEL 8
REMARK VINA RESULT:      -3.6      6.371      8.566
REMARK  12 active torsions:
REMARK  status: ('A' for Active; 'I' for Inactive)
REMARK    1  A    between atoms: P_4  and  O_5 
REMARK    2  A    between atoms: P_4  and  O_6 
REMARK    3  A    between atoms: P_4  and  O_7 
REMARK    4  A    between atoms: O_5  and  C_9 
REMARK    5  A    between atoms: O_6  and  C_10 
REMARK    6  A    between atoms: O_7  and  C_11 
REMARK    7  A    between atoms: C_9  and  C_12 
REMARK    8  A    between atoms: C_10  and  C_13 
REMARK    9  A    between atoms: C_11  and  C_14 
REMARK   10  A    between atoms: C_12  and  C_15 
REMARK   11  A    between atoms: C_13  and  C_16 
REMARK   12  A    between atoms: C_14  and  C_17 
ROOT
ATOM      1  P   UNL d   1       4.151   1.907   9.339  0.00  0.00     0.477 P 
ATOM      2  O   UNL d   1       5.565   2.413   9.308  0.00  0.00    -0.227 OA
ENDROOT
BRANCH   1   3
ATOM      3  O   UNL d   1       3.270   2.303   8.037  0.00  0.00    -0.292 OA
BRANCH   3   4
ATOM      4  C   UNL d   1       2.667   1.289   7.250  0.00  0.00     0.181 C 
BRANCH   4   5
ATOM      5  C   UNL d   1       2.021   1.936   6.031  0.00  0.00     0.042 C 
BRANCH   5   6
ATOM      6  C   UNL d   1       0.998   3.008   6.382  0.00  0.00     0.116 C 
ATOM      7 CL   UNL d   1       1.130   4.429   5.321  0.00  0.00    -0.130 Cl
ENDBRANCH   5   6
ENDBRANCH   4   5
ENDBRANCH   3   4
ENDBRANCH   1   3
BRANCH   1   8
ATOM      8  O   UNL d   1       3.273   2.431  10.596  0.00  0.00    -0.292 OA
BRANCH   8   9
ATOM      9  C   UNL d   1       1.905   2.735  10.384  0.00  0.00     0.181 C 
BRANCH   9  10
ATOM     10  C   UNL d   1       1.064   1.890  11.334  0.00  0.00     0.042 C 
BRANCH  10  11
ATOM     11  C   UNL d   1       0.686   0.528  10.768  0.00  0.00     0.116 C 
ATOM     12 CL   UNL d   1       1.492  -0.800  11.633  0.00  0.00    -0.130 Cl
ENDBRANCH  10  11
ENDBRANCH   9  10
ENDBRANCH   8   9
ENDBRANCH   1   8
BRANCH   1  13
ATOM     13  O   UNL d   1       4.012   0.296   9.447  0.00  0.00    -0.292 OA
BRANCH  13  14
ATOM     14  C   UNL d   1       5.188  -0.471   9.642  0.00  0.00     0.181 C 
BRANCH  14  15
ATOM     15  C   UNL d   1       4.932  -1.485  10.749  0.00  0.00     0.042 C 
BRANCH  15  16
ATOM     16  C   UNL d   1       5.940  -2.627  10.775  0.00  0.00     0.116 C 
ATOM     17 CL   UNL d   1       7.036  -2.515  12.171  0.00  0.00    -0.130 Cl
ENDBRANCH  15  16
ENDBRANCH  14  15
ENDBRANCH  13  14
ENDBRANCH   1  13
TORSDOF 12
ENDMDL
MODEL 9
REMARK VINA RESULT:      -3.5      4.239      5.288
REMARK  12 active torsions:
REMARK  status: ('A' for Active; 'I' for Inactive)
REMARK    1  A    between atoms: P_4  and  O_5 
REMARK    2  A    between atoms: P_4  and  O_6 
REMARK    3  A    between atoms: P_4  and  O_7 
REMARK    4  A    between atoms: O_5  and  C_9 
REMARK    5  A    between atoms: O_6  and  C_10 
REMARK    6  A    between atoms: O_7  and  C_11 
REMARK    7  A    between atoms: C_9  and  C_12 
REMARK    8  A    between atoms: C_10  and  C_13 
REMARK    9  A    between atoms: C_11  and  C_14 
REMARK   10  A    between atoms: C_12  and  C_15 
REMARK   11  A    between atoms: C_13  and  C_16 
REMARK   12  A    between atoms: C_14  and  C_17 
ROOT
ATOM      1  P   UNL d   1       5.713  -0.529   9.772  0.00  0.00     0.477 P 
ATOM      2  O   UNL d   1       6.910   0.377   9.823  0.00  0.00    -0.227 OA
ENDROOT
BRANCH   1   3
ATOM      3  O   UNL d   1       4.291   0.246   9.709  0.00  0.00    -0.292 OA
BRANCH   3   4
ATOM      4  C   UNL d   1       4.203   1.523   9.099  0.00  0.00     0.181 C 
BRANCH   4   5
ATOM      5  C   UNL d   1       3.753   2.535  10.146  0.00  0.00     0.042 C 
BRANCH   5   6
ATOM      6  C   UNL d   1       2.240   2.663  10.258  0.00  0.00     0.116 C 
ATOM      7 CL   UNL d   1       1.601   1.807  11.680  0.00  0.00    -0.130 Cl
ENDBRANCH   5   6
ENDBRANCH   4   5
ENDBRANCH   3   4
ENDBRANCH   1   3
BRANCH   1   8
ATOM      8  O   UNL d   1       5.571  -1.532  11.036  0.00  0.00    -0.292 OA
BRANCH   8   9
ATOM      9  C   UNL d   1       6.749  -2.093  11.589  0.00  0.00     0.181 C 
BRANCH   9  10
ATOM     10  C   UNL d   1       6.379  -3.363  12.345  0.00  0.00     0.042 C 
BRANCH  10  11
ATOM     11  C   UNL d   1       7.401  -3.766  13.400  0.00  0.00     0.116 C 
ATOM     12 CL   UNL d   1       9.070  -3.558  12.824  0.00  0.00    -0.130 Cl
ENDBRANCH  10  11
ENDBRANCH   9  10
ENDBRANCH   8   9
ENDBRANCH   1   8
BRANCH   1  13
ATOM     13  O   UNL d   1       5.682  -1.536   8.504  0.00  0.00    -0.292 OA
BRANCH  13  14
ATOM     14  C   UNL d   1       6.863  -1.691   7.736  0.00  0.00     0.181 C 
BRANCH  14  15
ATOM     15  C   UNL d   1       7.238  -3.168   7.708  0.00  0.00     0.042 C 
BRANCH  15  16
ATOM     16  C   UNL d   1       8.334  -3.538   8.698  0.00  0.00     0.116 C 
ATOM     17 CL   UNL d   1       9.957  -3.345   7.998  0.00  0.00    -0.130 Cl
ENDBRANCH  15  16
ENDBRANCH  14  15
ENDBRANCH  13  14
ENDBRANCH   1  13
TORSDOF 12
ENDMDL
