MODEL 1
REMARK VINA RESULT:      -5.6      0.000      0.000
REMARK  8 active torsions:
REMARK  status: ('A' for Active; 'I' for Inactive)
REMARK    1  A    between atoms: O_4  and  C_14 
REMARK    2  A    between atoms: O_4  and  C_18 
REMARK    3  A    between atoms: O_5  and  C_17 
REMARK    4  A    between atoms: O_7  and  C_23 
REMARK    5  A    between atoms: N_8  and  CA_10 
REMARK    6  A    between atoms: C_9  and  CA_10 
REMARK    7  A    between atoms: C_9  and  C_11 
REMARK    8  A    between atoms: CA_10  and  C_17 
ROOT
ATOM      1  I   UNL d   1       4.335  -2.273   6.593  0.00  0.00    -0.042 I 
ATOM      2  I   UNL d   1       6.982  -2.987  12.045  0.00  0.00    -0.042 I 
ATOM      3  C   UNL d   1       8.198  -3.658   7.951  0.00  0.00    -0.053 A 
ATOM      4  C   UNL d   1       8.160  -3.572   9.334  0.00  0.00     0.028 A 
ATOM      5  C   UNL d   1       7.112  -3.289   7.175  0.00  0.00     0.028 A 
ATOM      6  C   UNL d   1       5.900  -2.729   9.188  0.00  0.00     0.109 A 
ATOM      7  C   UNL d   1       5.955  -2.821   7.798  0.00  0.00     0.042 A 
ATOM      8  C   UNL d   1       7.002  -3.104   9.956  0.00  0.00     0.042 A 
ENDROOT
BRANCH   6   9
ATOM      9  O   UNL d   1       4.767  -2.270   9.799  0.00  0.00    -0.308 OA
BRANCH   9  10
ATOM     10  C   UNL d   1       4.615  -0.900   9.915  0.00  0.00     0.077 A 
ATOM     11  C   UNL d   1       3.380  -0.385  10.270  0.00  0.00     0.058 A 
ATOM     12  C   UNL d   1       3.227   0.996  10.388  0.00  0.00     0.042 A 
ATOM     13  I   UNL d   1       1.353   1.750  10.923  0.00  0.00    -0.042 I 
ATOM     14  C   UNL d   1       4.311   1.841  10.149  0.00  0.00     0.082 A 
ATOM     15  C   UNL d   1       5.548   1.304   9.793  0.00  0.00     0.040 A 
ATOM     16  C   UNL d   1       5.701  -0.077   9.676  0.00  0.00     0.040 A 
BRANCH  14  17
ATOM     17  O   UNL d   1       4.203   3.196  10.253  0.00  0.00    -0.359 OA
ATOM     18  H   UNL d   1       3.392   3.417  10.742  0.00  0.00     0.217 HD
ENDBRANCH  14  17
ENDBRANCH   9  10
ENDBRANCH   6   9
BRANCH   3  19
ATOM     19  C   UNL d   1       9.451  -4.164   7.277  0.00  0.00     0.085 C 
BRANCH  19  20
ATOM     20  CA  UNL d   1      10.057  -3.145   6.299  0.00  0.00     0.318 C 
BRANCH  20  21
ATOM     21  N   UNL d   1      10.826  -3.843   5.271  0.00  0.00     0.093 N 
ATOM     22  H1  UNL d   1      10.732  -4.849   5.398  0.00  0.00     0.314 HD
ATOM     23  H2  UNL d   1      11.819  -3.640   5.385  0.00  0.00     0.314 HD
ENDBRANCH  20  21
BRANCH  20  24
ATOM     24  C   UNL d   1      11.018  -2.193   6.990  0.00  0.00     0.174 C 
ATOM     25  OXT UNL d   1      11.063  -0.984   6.800  0.00  0.00    -0.648 OA
BRANCH  24  26
ATOM     26  O   UNL d   1      11.818  -2.827   7.887  0.00  0.00    -0.775 OA
ATOM     27  H   UNL d   1      12.024  -3.744   7.608  0.00  0.00     0.167 HD
ENDBRANCH  24  26
ENDBRANCH  20  24
ENDBRANCH  19  20
ENDBRANCH   3  19
TORSDOF 8
ENDMDL
MODEL 2
REMARK VINA RESULT:      -5.4      4.469      5.600
REMARK  8 active torsions:
REMARK  status: ('A' for Active; 'I' for Inactive)
REMARK    1  A    between atoms: O_4  and  C_14 
REMARK    2  A    between atoms: O_4  and  C_18 
REMARK    3  A    between atoms: O_5  and  C_17 
REMARK    4  A    between atoms: O_7  and  C_23 
REMARK    5  A    between atoms: N_8  and  CA_10 
REMARK    6  A    between atoms: C_9  and  CA_10 
REMARK    7  A    between atoms: C_9  and  C_11 
REMARK    8  A    between atoms: CA_10  and  C_17 
ROOT
ATOM      1  I   UNL d   1       1.557  -1.881  11.207  0.00  0.00    -0.042 I 
ATOM      2  I   UNL d   1       6.616   0.930   9.271  0.00  0.00    -0.042 I 
ATOM      3  C   UNL d   1       5.788  -2.742  11.397  0.00  0.00    -0.053 A 
ATOM      4  C   UNL d   1       6.413  -1.683  10.757  0.00  0.00     0.028 A 
ATOM      5  C   UNL d   1       4.410  -2.797  11.523  0.00  0.00     0.028 A 
ATOM      6  C   UNL d   1       4.248  -0.691  10.350  0.00  0.00     0.109 A 
ATOM      7  C   UNL d   1       3.635  -1.764  10.997  0.00  0.00     0.042 A 
ATOM      8  C   UNL d   1       5.637  -0.651  10.230  0.00  0.00     0.042 A 
ENDROOT
BRANCH   6   9
ATOM      9  O   UNL d   1       3.489   0.320   9.833  0.00  0.00    -0.308 OA
BRANCH   9  10
ATOM     10  C   UNL d   1       3.168   0.256   8.490  0.00  0.00     0.077 A 
ATOM     11  C   UNL d   1       2.633   1.370   7.868  0.00  0.00     0.058 A 
ATOM     12  C   UNL d   1       2.310   1.305   6.513  0.00  0.00     0.042 A 
ATOM     13  I   UNL d   1       1.501   3.000   5.596  0.00  0.00    -0.042 I 
ATOM     14  C   UNL d   1       2.528   0.125   5.800  0.00  0.00     0.082 A 
ATOM     15  C   UNL d   1       3.069  -0.988   6.443  0.00  0.00     0.040 A 
ATOM     16  C   UNL d   1       3.392  -0.922   7.798  0.00  0.00     0.040 A 
BRANCH  14  17
ATOM     17  O   UNL d   1       2.226   0.019   4.475  0.00  0.00    -0.359 OA
ATOM     18  H   UNL d   1       2.662  -0.769   4.108  0.00  0.00     0.217 HD
ENDBRANCH  14  17
ENDBRANCH   9  10
ENDBRANCH   6   9
BRANCH   3  19
ATOM     19  C   UNL d   1       6.628  -3.861  11.967  0.00  0.00     0.085 C 
BRANCH  19  20
ATOM     20  CA  UNL d   1       7.431  -3.434  13.205  0.00  0.00     0.318 C 
BRANCH  20  21
ATOM     21  N   UNL d   1       8.814  -3.888  13.079  0.00  0.00     0.093 N 
ATOM     22  H1  UNL d   1       9.114  -3.807  12.108  0.00  0.00     0.314 HD
ATOM     23  H2  UNL d   1       8.874  -4.881  13.306  0.00  0.00     0.314 HD
ENDBRANCH  20  21
BRANCH  20  24
ATOM     24  C   UNL d   1       6.886  -4.051  14.481  0.00  0.00     0.174 C 
ATOM     25  OXT UNL d   1       6.589  -5.231  14.616  0.00  0.00    -0.648 OA
BRANCH  24  26
ATOM     26  O   UNL d   1       6.791  -3.148  15.492  0.00  0.00    -0.775 OA
ATOM     27  H   UNL d   1       6.170  -3.447  16.190  0.00  0.00     0.167 HD
ENDBRANCH  24  26
ENDBRANCH  20  24
ENDBRANCH  19  20
ENDBRANCH   3  19
TORSDOF 8
ENDMDL
MODEL 3
REMARK VINA RESULT:      -5.4      4.533      7.567
REMARK  8 active torsions:
REMARK  status: ('A' for Active; 'I' for Inactive)
REMARK    1  A    between atoms: O_4  and  C_14 
REMARK    2  A    between atoms: O_4  and  C_18 
REMARK    3  A    between atoms: O_5  and  C_17 
REMARK    4  A    between atoms: O_7  and  C_23 
REMARK    5  A    between atoms: N_8  and  CA_10 
REMARK    6  A    between atoms: C_9  and  CA_10 
REMARK    7  A    between atoms: C_9  and  C_11 
REMARK    8  A    between atoms: CA_10  and  C_17 
ROOT
ATOM      1  I   UNL d   1       6.424  -2.239   8.374  0.00  0.00    -0.042 I 
ATOM      2  I   UNL d   1      10.255  -6.807   9.680  0.00  0.00    -0.042 I 
ATOM      3  C   UNL d   1       8.281  -3.726  11.983  0.00  0.00    -0.053 A 
ATOM      4  C   UNL d   1       9.053  -4.807  11.587  0.00  0.00     0.028 A 
ATOM      5  C   UNL d   1       7.536  -2.998  11.070  0.00  0.00     0.028 A 
ATOM      6  C   UNL d   1       8.334  -4.446   9.308  0.00  0.00     0.109 A 
ATOM      7  C   UNL d   1       7.563  -3.361   9.723  0.00  0.00     0.042 A 
ATOM      8  C   UNL d   1       9.079  -5.169  10.240  0.00  0.00     0.042 A 
ENDROOT
BRANCH   6   9
ATOM      9  O   UNL d   1       8.360  -4.801   7.990  0.00  0.00    -0.308 OA
BRANCH   9  10
ATOM     10  C   UNL d   1       9.318  -4.209   7.187  0.00  0.00     0.077 A 
ATOM     11  C   UNL d   1       9.470  -4.644   5.882  0.00  0.00     0.058 A 
ATOM     12  C   UNL d   1      10.436  -4.046   5.073  0.00  0.00     0.042 A 
ATOM     13  I   UNL d   1      10.648  -4.720   3.106  0.00  0.00    -0.042 I 
ATOM     14  C   UNL d   1      11.235  -3.022   5.582  0.00  0.00     0.082 A 
ATOM     15  C   UNL d   1      11.068  -2.596   6.899  0.00  0.00     0.040 A 
ATOM     16  C   UNL d   1      10.102  -3.194   7.708  0.00  0.00     0.040 A 
BRANCH  14  17
ATOM     17  O   UNL d   1      12.191  -2.411   4.825  0.00  0.00    -0.359 OA
ATOM     18  H   UNL d   1      12.553  -1.654   5.315  0.00  0.00     0.217 HD
ENDBRANCH  14  17
ENDBRANCH   9  10
ENDBRANCH   6   9
BRANCH   3  19
ATOM     19  C   UNL d   1       8.252  -3.334  13.442  0.00  0.00     0.085 C 
BRANCH  19  20
ATOM     20  CA  UNL d   1       6.844  -3.414  14.054  0.00  0.00     0.318 C 
BRANCH  20  21
ATOM     21  N   UNL d   1       6.910  -3.121  15.484  0.00  0.00     0.093 N 
ATOM     22  H1  UNL d   1       6.034  -2.697  15.786  0.00  0.00     0.314 HD
ATOM     23  H2  UNL d   1       7.631  -2.421  15.660  0.00  0.00     0.314 HD
ENDBRANCH  20  21
BRANCH  20  24
ATOM     24  C   UNL d   1       6.242  -4.802  13.922  0.00  0.00     0.174 C 
ATOM     25  OXT UNL d   1       5.329  -5.099  13.161  0.00  0.00    -0.648 OA
BRANCH  24  26
ATOM     26  O   UNL d   1       6.855  -5.710  14.725  0.00  0.00    -0.775 OA
ATOM     27  H   UNL d   1       6.213  -6.186  15.294  0.00  0.00     0.167 HD
ENDBRANCH  24  26
ENDBRANCH  20  24
ENDBRANCH  19  20
ENDBRANCH   3  19
TORSDOF 8
ENDMDL
MODEL 4
REMARK VINA RESULT:      -5.4      0.596      2.144
REMARK  8 active torsions:
REMARK  status: ('A' for Active; 'I' for Inactive)
REMARK    1  A    between atoms: O_4  and  C_14 
REMARK    2  A    between atoms: O_4  and  C_18 
REMARK    3  A    between atoms: O_5  and  C_17 
REMARK    4  A    between atoms: O_7  and  C_23 
REMARK    5  A    between atoms: N_8  and  CA_10 
REMARK    6  A    between atoms: C_9  and  CA_10 
REMARK    7  A    between atoms: C_9  and  C_11 
REMARK    8  A    between atoms: CA_10  and  C_17 
ROOT
ATOM      1  I   UNL d   1       6.807  -2.991  12.099  0.00  0.00    -0.042 I 
ATOM      2  I   UNL d   1       4.600  -2.315   6.449  0.00  0.00    -0.042 I 
ATOM      3  C   UNL d   1       8.340  -3.697   8.120  0.00  0.00    -0.053 A 
ATOM      4  C   UNL d   1       7.319  -3.332   7.257  0.00  0.00     0.028 A 
ATOM      5  C   UNL d   1       8.193  -3.599   9.493  0.00  0.00     0.028 A 
ATOM      6  C   UNL d   1       5.955  -2.752   9.165  0.00  0.00     0.109 A 
ATOM      7  C   UNL d   1       6.993  -3.124  10.019  0.00  0.00     0.042 A 
ATOM      8  C   UNL d   1       6.119  -2.856   7.783  0.00  0.00     0.042 A 
ENDROOT
BRANCH   6   9
ATOM      9  O   UNL d   1       4.779  -2.287   9.680  0.00  0.00    -0.308 OA
BRANCH   9  10
ATOM     10  C   UNL d   1       4.644  -0.919   9.830  0.00  0.00     0.077 A 
ATOM     11  C   UNL d   1       3.416  -0.396  10.199  0.00  0.00     0.058 A 
ATOM     12  C   UNL d   1       3.281   0.983  10.350  0.00  0.00     0.042 A 
ATOM     13  I   UNL d   1       1.417   1.748  10.906  0.00  0.00    -0.042 I 
ATOM     14  C   UNL d   1       4.376   1.820  10.131  0.00  0.00     0.082 A 
ATOM     15  C   UNL d   1       5.606   1.276   9.762  0.00  0.00     0.040 A 
ATOM     16  C   UNL d   1       5.740  -0.104   9.610  0.00  0.00     0.040 A 
BRANCH  14  17
ATOM     17  O   UNL d   1       4.286   3.173  10.269  0.00  0.00    -0.359 OA
ATOM     18  H   UNL d   1       3.354   3.442  10.195  0.00  0.00     0.217 HD
ENDBRANCH  14  17
ENDBRANCH   9  10
ENDBRANCH   6   9
BRANCH   3  19
ATOM     19  C   UNL d   1       9.641  -4.212   7.549  0.00  0.00     0.085 C 
BRANCH  19  20
ATOM     20  CA  UNL d   1       9.976  -3.603   6.179  0.00  0.00     0.318 C 
BRANCH  20  21
ATOM     21  N   UNL d   1      10.129  -4.667   5.189  0.00  0.00     0.093 N 
ATOM     22  H1  UNL d   1      10.969  -4.502   4.636  0.00  0.00     0.314 HD
ATOM     23  H2  UNL d   1       9.352  -4.639   4.528  0.00  0.00     0.314 HD
ENDBRANCH  20  21
BRANCH  20  24
ATOM     24  C   UNL d   1      11.286  -2.836   6.199  0.00  0.00     0.174 C 
ATOM     25  OXT UNL d   1      11.831  -2.356   5.213  0.00  0.00    -0.648 OA
BRANCH  24  26
ATOM     26  O   UNL d   1      11.786  -2.701   7.455  0.00  0.00    -0.775 OA
ATOM     27  H   UNL d   1      11.129  -2.309   8.069  0.00  0.00     0.167 HD
ENDBRANCH  24  26
ENDBRANCH  20  24
ENDBRANCH  19  20
ENDBRANCH   3  19
TORSDOF 8
ENDMDL
MODEL 5
REMARK VINA RESULT:      -5.2      4.339      8.282
REMARK  8 active torsions:
REMARK  status: ('A' for Active; 'I' for Inactive)
REMARK    1  A    between atoms: O_4  and  C_14 
REMARK    2  A    between atoms: O_4  and  C_18 
REMARK    3  A    between atoms: O_5  and  C_17 
REMARK    4  A    between atoms: O_7  and  C_23 
REMARK    5  A    between atoms: N_8  and  CA_10 
REMARK    6  A    between atoms: C_9  and  CA_10 
REMARK    7  A    between atoms: C_9  and  C_11 
REMARK    8  A    between atoms: CA_10  and  C_17 
ROOT
ATOM      1  I   UNL d   1       6.509   0.717   9.252  0.00  0.00    -0.042 I 
ATOM      2  I   UNL d   1       2.689  -3.870  10.525  0.00  0.00    -0.042 I 
ATOM      3  C   UNL d   1       2.491   0.438  10.821  0.00  0.00    -0.053 A 
ATOM      4  C   UNL d   1       2.201  -0.916  10.867  0.00  0.00     0.028 A 
ATOM      5  C   UNL d   1       3.714   0.900  10.363  0.00  0.00     0.028 A 
ATOM      6  C   UNL d   1       4.399  -1.384   9.978  0.00  0.00     0.109 A 
ATOM      7  C   UNL d   1       4.674  -0.018   9.939  0.00  0.00     0.042 A 
ATOM      8  C   UNL d   1       3.162  -1.834  10.442  0.00  0.00     0.042 A 
ENDROOT
BRANCH   6   9
ATOM      9  O   UNL d   1       5.339  -2.284   9.562  0.00  0.00    -0.308 OA
BRANCH   9  10
ATOM     10  C   UNL d   1       6.319  -2.649  10.467  0.00  0.00     0.077 A 
ATOM     11  C   UNL d   1       7.425  -3.350  10.020  0.00  0.00     0.058 A 
ATOM     12  C   UNL d   1       8.413  -3.718  10.933  0.00  0.00     0.042 A 
ATOM     13  I   UNL d   1      10.073  -4.778  10.235  0.00  0.00    -0.042 I 
ATOM     14  C   UNL d   1       8.279  -3.378  12.280  0.00  0.00     0.082 A 
ATOM     15  C   UNL d   1       7.158  -2.670  12.712  0.00  0.00     0.040 A 
ATOM     16  C   UNL d   1       6.170  -2.302  11.798  0.00  0.00     0.040 A 
BRANCH  14  17
ATOM     17  O   UNL d   1       9.222  -3.718  13.204  0.00  0.00    -0.359 OA
ATOM     18  H   UNL d   1       9.972  -4.145  12.756  0.00  0.00     0.217 HD
ENDBRANCH  14  17
ENDBRANCH   9  10
ENDBRANCH   6   9
BRANCH   3  19
ATOM     19  C   UNL d   1       1.450   1.432  11.281  0.00  0.00     0.085 C 
BRANCH  19  20
ATOM     20  CA  UNL d   1       0.405   1.747  10.198  0.00  0.00     0.318 C 
BRANCH  20  21
ATOM     21  N   UNL d   1       0.705   3.037   9.582  0.00  0.00     0.093 N 
ATOM     22  H1  UNL d   1       1.535   3.438  10.015  0.00  0.00     0.314 HD
ATOM     23  H2  UNL d   1      -0.052   3.695   9.772  0.00  0.00     0.314 HD
ENDBRANCH  20  21
BRANCH  20  24
ATOM     24  C   UNL d   1      -0.997   1.853  10.772  0.00  0.00     0.174 C 
ATOM     25  OXT UNL d   1      -1.581   0.955  11.364  0.00  0.00    -0.648 OA
BRANCH  24  26
ATOM     26  O   UNL d   1      -1.538   3.086  10.588  0.00  0.00    -0.775 OA
ATOM     27  H   UNL d   1      -2.369   3.046  10.069  0.00  0.00     0.167 HD
ENDBRANCH  24  26
ENDBRANCH  20  24
ENDBRANCH  19  20
ENDBRANCH   3  19
TORSDOF 8
ENDMDL
MODEL 6
REMARK VINA RESULT:      -5.1      4.377      8.259
REMARK  8 active torsions:
REMARK  status: ('A' for Active; 'I' for Inactive)
REMARK    1  A    between atoms: O_4  and  C_14 
REMARK    2  A    between atoms: O_4  and  C_18 
REMARK    3  A    between atoms: O_5  and  C_17 
REMARK    4  A    between atoms: O_7  and  C_23 
REMARK    5  A    between atoms: N_8  and  CA_10 
REMARK    6  A    between atoms: C_9  and  CA_10 
REMARK    7  A    between atoms: C_9  and  C_11 
REMARK    8  A    between atoms: CA_10  and  C_17 
ROOT
ATOM      1  I   UNL d   1       2.492  -3.925  10.895  0.00  0.00    -0.042 I 
ATOM      2  I   UNL d   1       6.426   0.429   9.216  0.00  0.00    -0.042 I 
ATOM      3  C   UNL d   1       2.451   0.397  10.916  0.00  0.00    -0.053 A 
ATOM      4  C   UNL d   1       3.675   0.784  10.393  0.00  0.00     0.028 A 
ATOM      5  C   UNL d   1       2.117  -0.940  11.058  0.00  0.00     0.028 A 
ATOM      6  C   UNL d   1       4.267  -1.544  10.137  0.00  0.00     0.109 A 
ATOM      7  C   UNL d   1       3.031  -1.917  10.665  0.00  0.00     0.042 A 
ATOM      8  C   UNL d   1       4.588  -0.194  10.001  0.00  0.00     0.042 A 
ENDROOT
BRANCH   6   9
ATOM      9  O   UNL d   1       5.163  -2.502   9.753  0.00  0.00    -0.308 OA
BRANCH   9  10
ATOM     10  C   UNL d   1       6.199  -2.792  10.621  0.00  0.00     0.077 A 
ATOM     11  C   UNL d   1       7.316  -3.456  10.144  0.00  0.00     0.058 A 
ATOM     12  C   UNL d   1       8.360  -3.748  11.021  0.00  0.00     0.042 A 
ATOM     13  I   UNL d   1      10.036  -4.752  10.277  0.00  0.00    -0.042 I 
ATOM     14  C   UNL d   1       8.272  -3.371  12.361  0.00  0.00     0.082 A 
ATOM     15  C   UNL d   1       7.140  -2.702  12.825  0.00  0.00     0.040 A 
ATOM     16  C   UNL d   1       6.095  -2.410  11.947  0.00  0.00     0.040 A 
BRANCH  14  17
ATOM     17  O   UNL d   1       9.271  -3.638  13.250  0.00  0.00    -0.359 OA
ATOM     18  H   UNL d   1       8.908  -3.631  14.153  0.00  0.00     0.217 HD
ENDBRANCH  14  17
ENDBRANCH   9  10
ENDBRANCH   6   9
BRANCH   3  19
ATOM     19  C   UNL d   1       1.461   1.456  11.342  0.00  0.00     0.085 C 
BRANCH  19  20
ATOM     20  CA  UNL d   1       0.487   1.848  10.221  0.00  0.00     0.318 C 
BRANCH  20  21
ATOM     21  N   UNL d   1       0.913   3.106   9.612  0.00  0.00     0.093 N 
ATOM     22  H1  UNL d   1       0.221   3.407   8.928  0.00  0.00     0.314 HD
ATOM     23  H2  UNL d   1       1.777   2.961   9.088  0.00  0.00     0.314 HD
ENDBRANCH  20  21
BRANCH  20  24
ATOM     24  C   UNL d   1      -0.922   2.072  10.741  0.00  0.00     0.174 C 
ATOM     25  OXT UNL d   1      -1.573   3.097  10.580  0.00  0.00    -0.648 OA
BRANCH  24  26
ATOM     26  O   UNL d   1      -1.413   0.983  11.389  0.00  0.00    -0.775 OA
ATOM     27  H   UNL d   1      -1.067   0.147  11.011  0.00  0.00     0.167 HD
ENDBRANCH  24  26
ENDBRANCH  20  24
ENDBRANCH  19  20
ENDBRANCH   3  19
TORSDOF 8
ENDMDL
MODEL 7
REMARK VINA RESULT:      -5.1      4.310      5.016
REMARK  8 active torsions:
REMARK  status: ('A' for Active; 'I' for Inactive)
REMARK    1  A    between atoms: O_4  and  C_14 
REMARK    2  A    between atoms: O_4  and  C_18 
REMARK    3  A    between atoms: O_5  and  C_17 
REMARK    4  A    between atoms: O_7  and  C_23 
REMARK    5  A    between atoms: N_8  and  CA_10 
REMARK    6  A    between atoms: C_9  and  CA_10 
REMARK    7  A    between atoms: C_9  and  C_11 
REMARK    8  A    between atoms: CA_10  and  C_17 
ROOT
ATOM      1  I   UNL d   1       2.300  -4.087   9.098  0.00  0.00    -0.042 I 
ATOM      2  I   UNL d   1       6.177   0.606   9.536  0.00  0.00    -0.042 I 
ATOM      3  C   UNL d   1       6.093  -3.436  11.066  0.00  0.00    -0.053 A 
ATOM      4  C   UNL d   1       6.450  -2.132  10.766  0.00  0.00     0.028 A 
ATOM      5  C   UNL d   1       4.915  -3.990  10.592  0.00  0.00     0.028 A 
ATOM      6  C   UNL d   1       4.414  -1.902   9.484  0.00  0.00     0.109 A 
ATOM      7  C   UNL d   1       4.070  -3.217   9.796  0.00  0.00     0.042 A 
ATOM      8  C   UNL d   1       5.604  -1.360   9.969  0.00  0.00     0.042 A 
ENDROOT
BRANCH   6   9
ATOM      9  O   UNL d   1       3.587  -1.146   8.703  0.00  0.00    -0.308 OA
BRANCH   9  10
ATOM     10  C   UNL d   1       2.673  -0.330   9.345  0.00  0.00     0.077 A 
ATOM     11  C   UNL d   1       1.927   0.567   8.599  0.00  0.00     0.058 A 
ATOM     12  C   UNL d   1       1.006   1.389   9.247  0.00  0.00     0.042 A 
ATOM     13  I   UNL d   1      -0.107   2.737   8.101  0.00  0.00    -0.042 I 
ATOM     14  C   UNL d   1       0.843   1.301  10.630  0.00  0.00     0.082 A 
ATOM     15  C   UNL d   1       1.602   0.391  11.365  0.00  0.00     0.040 A 
ATOM     16  C   UNL d   1       2.524  -0.431  10.717  0.00  0.00     0.040 A 
BRANCH  14  17
ATOM     17  O   UNL d   1      -0.047   2.086  11.301  0.00  0.00    -0.359 OA
ATOM     18  H   UNL d   1       0.185   2.101  12.245  0.00  0.00     0.217 HD
ENDBRANCH  14  17
ENDBRANCH   9  10
ENDBRANCH   6   9
BRANCH   3  19
ATOM     19  C   UNL d   1       7.008  -4.273  11.929  0.00  0.00     0.085 C 
BRANCH  19  20
ATOM     20  CA  UNL d   1       7.548  -3.507  13.146  0.00  0.00     0.318 C 
BRANCH  20  21
ATOM     21  N   UNL d   1       8.998  -3.666  13.227  0.00  0.00     0.093 N 
ATOM     22  H1  UNL d   1       9.345  -4.090  12.369  0.00  0.00     0.314 HD
ATOM     23  H2  UNL d   1       9.233  -4.320  13.975  0.00  0.00     0.314 HD
ENDBRANCH  20  21
BRANCH  20  24
ATOM     24  C   UNL d   1       6.979  -4.033  14.452  0.00  0.00     0.174 C 
ATOM     25  OXT UNL d   1       6.666  -3.338  15.410  0.00  0.00    -0.648 OA
BRANCH  24  26
ATOM     26  O   UNL d   1       6.815  -5.382  14.437  0.00  0.00    -0.775 OA
ATOM     27  H   UNL d   1       5.913  -5.636  14.145  0.00  0.00     0.167 HD
ENDBRANCH  24  26
ENDBRANCH  20  24
ENDBRANCH  19  20
ENDBRANCH   3  19
TORSDOF 8
ENDMDL
MODEL 8
REMARK VINA RESULT:      -5.0     17.708     20.037
REMARK  8 active torsions:
REMARK  status: ('A' for Active; 'I' for Inactive)
REMARK    1  A    between atoms: O_4  and  C_14 
REMARK    2  A    between atoms: O_4  and  C_18 
REMARK    3  A    between atoms: O_5  and  C_17 
REMARK    4  A    between atoms: O_7  and  C_23 
REMARK    5  A    between atoms: N_8  and  CA_10 
REMARK    6  A    between atoms: C_9  and  CA_10 
REMARK    7  A    between atoms: C_9  and  C_11 
REMARK    8  A    between atoms: CA_10  and  C_17 
ROOT
ATOM      1  I   UNL d   1       5.575  17.598  -1.486  0.00  0.00    -0.042 I 
ATOM      2  I   UNL d   1       4.755  11.562  -1.867  0.00  0.00    -0.042 I 
ATOM      3  C   UNL d   1       4.285  14.515   1.255  0.00  0.00    -0.053 A 
ATOM      4  C   UNL d   1       4.318  13.335   0.531  0.00  0.00     0.028 A 
ATOM      5  C   UNL d   1       4.642  15.724   0.681  0.00  0.00     0.028 A 
ATOM      6  C   UNL d   1       5.082  14.575  -1.397  0.00  0.00     0.109 A 
ATOM      7  C   UNL d   1       5.044  15.754  -0.654  0.00  0.00     0.042 A 
ATOM      8  C   UNL d   1       4.719  13.365  -0.805  0.00  0.00     0.042 A 
ENDROOT
BRANCH   6   9
ATOM      9  O   UNL d   1       5.475  14.604  -2.705  0.00  0.00    -0.308 OA
BRANCH   9  10
ATOM     10  C   UNL d   1       6.832  14.558  -2.966  0.00  0.00     0.077 A 
ATOM     11  C   UNL d   1       7.277  14.713  -4.268  0.00  0.00     0.058 A 
ATOM     12  C   UNL d   1       8.645  14.667  -4.530  0.00  0.00     0.042 A 
ATOM     13  I   UNL d   1       9.292  14.902  -6.503  0.00  0.00    -0.042 I 
ATOM     14  C   UNL d   1       9.549  14.466  -3.486  0.00  0.00     0.082 A 
ATOM     15  C   UNL d   1       9.084  14.313  -2.180  0.00  0.00     0.040 A 
ATOM     16  C   UNL d   1       7.714  14.359  -1.919  0.00  0.00     0.040 A 
BRANCH  14  17
ATOM     17  O   UNL d   1      10.895  14.415  -3.700  0.00  0.00    -0.359 OA
ATOM     18  H   UNL d   1      11.093  14.768  -4.584  0.00  0.00     0.217 HD
ENDBRANCH  14  17
ENDBRANCH   9  10
ENDBRANCH   6   9
BRANCH   3  19
ATOM     19  C   UNL d   1       3.849  14.483   2.701  0.00  0.00     0.085 C 
BRANCH  19  20
ATOM     20  CA  UNL d   1       4.798  15.259   3.629  0.00  0.00     0.318 C 
BRANCH  20  21
ATOM     21  N   UNL d   1       5.875  14.381   4.081  0.00  0.00     0.093 N 
ATOM     22  H1  UNL d   1       5.482  13.504   4.421  0.00  0.00     0.314 HD
ATOM     23  H2  UNL d   1       6.349  14.800   4.882  0.00  0.00     0.314 HD
ENDBRANCH  20  21
BRANCH  20  24
ATOM     24  C   UNL d   1       4.093  15.761   4.876  0.00  0.00     0.174 C 
ATOM     25  OXT UNL d   1       2.881  15.897   4.988  0.00  0.00    -0.648 OA
BRANCH  24  26
ATOM     26  O   UNL d   1       4.959  16.017   5.892  0.00  0.00    -0.775 OA
ATOM     27  H   UNL d   1       5.817  16.359   5.562  0.00  0.00     0.167 HD
ENDBRANCH  24  26
ENDBRANCH  20  24
ENDBRANCH  19  20
ENDBRANCH   3  19
TORSDOF 8
ENDMDL
MODEL 9
REMARK VINA RESULT:      -4.9     18.645     20.078
REMARK  8 active torsions:
REMARK  status: ('A' for Active; 'I' for Inactive)
REMARK    1  A    between atoms: O_4  and  C_14 
REMARK    2  A    between atoms: O_4  and  C_18 
REMARK    3  A    between atoms: O_5  and  C_17 
REMARK    4  A    between atoms: O_7  and  C_23 
REMARK    5  A    between atoms: N_8  and  CA_10 
REMARK    6  A    between atoms: C_9  and  CA_10 
REMARK    7  A    between atoms: C_9  and  C_11 
REMARK    8  A    between atoms: CA_10  and  C_17 
ROOT
ATOM      1  I   UNL d   1       9.871  17.409   2.592  0.00  0.00    -0.042 I 
ATOM      2  I   UNL d   1       4.635  17.498  -0.541  0.00  0.00    -0.042 I 
ATOM      3  C   UNL d   1       8.453  15.533  -1.035  0.00  0.00    -0.053 A 
ATOM      4  C   UNL d   1       7.151  15.976  -1.199  0.00  0.00     0.028 A 
ATOM      5  C   UNL d   1       9.224  15.940   0.042  0.00  0.00     0.028 A 
ATOM      6  C   UNL d   1       7.368  17.271   0.829  0.00  0.00     0.109 A 
ATOM      7  C   UNL d   1       8.677  16.816   0.979  0.00  0.00     0.042 A 
ATOM      8  C   UNL d   1       6.605  16.851  -0.261  0.00  0.00     0.042 A 
ENDROOT
BRANCH   6   9
ATOM      9  O   UNL d   1       6.832  18.128   1.748  0.00  0.00    -0.308 OA
BRANCH   9  10
ATOM     10  C   UNL d   1       6.269  17.576   2.884  0.00  0.00     0.077 A 
ATOM     11  C   UNL d   1       5.902  18.406   3.929  0.00  0.00     0.058 A 
ATOM     12  C   UNL d   1       5.334  17.849   5.074  0.00  0.00     0.042 A 
ATOM     13  I   UNL d   1       4.788  19.122   6.639  0.00  0.00    -0.042 I 
ATOM     14  C   UNL d   1       5.142  16.469   5.156  0.00  0.00     0.082 A 
ATOM     15  C   UNL d   1       5.517  15.648   4.093  0.00  0.00     0.040 A 
ATOM     16  C   UNL d   1       6.085  16.206   2.948  0.00  0.00     0.040 A 
BRANCH  14  17
ATOM     17  O   UNL d   1       4.590  15.884   6.257  0.00  0.00    -0.359 OA
ATOM     18  H   UNL d   1       3.680  15.608   6.053  0.00  0.00     0.217 HD
ENDBRANCH  14  17
ENDBRANCH   9  10
ENDBRANCH   6   9
BRANCH   3  19
ATOM     19  C   UNL d   1       9.045  14.584  -2.051  0.00  0.00     0.085 C 
BRANCH  19  20
ATOM     20  CA  UNL d   1       8.901  15.089  -3.495  0.00  0.00     0.318 C 
BRANCH  20  21
ATOM     21  N   UNL d   1       8.114  14.136  -4.276  0.00  0.00     0.093 N 
ATOM     22  H1  UNL d   1       8.427  14.148  -5.245  0.00  0.00     0.314 HD
ATOM     23  H2  UNL d   1       7.137  14.429  -4.296  0.00  0.00     0.314 HD
ENDBRANCH  20  21
BRANCH  20  24
ATOM     24  C   UNL d   1      10.244  15.219  -4.192  0.00  0.00     0.174 C 
ATOM     25  OXT UNL d   1      10.518  16.068  -5.030  0.00  0.00    -0.648 OA
BRANCH  24  26
ATOM     26  O   UNL d   1      11.143  14.299  -3.755  0.00  0.00    -0.775 OA
ATOM     27  H   UNL d   1      10.780  13.389  -3.789  0.00  0.00     0.167 HD
ENDBRANCH  24  26
ENDBRANCH  20  24
ENDBRANCH  19  20
ENDBRANCH   3  19
TORSDOF 8
ENDMDL
