MODEL 1
REMARK VINA RESULT:      -5.4      0.000      0.000
REMARK  2 active torsions:
REMARK  status: ('A' for Active; 'I' for Inactive)
REMARK    1  A    between atoms: O_11  and  C_12 
REMARK    2  A    between atoms: O_11  and  C_13 
ROOT
ATOM      1  O   UNL d   1       6.974  -1.729  10.616  0.00  0.00    -0.305 OA
ENDROOT
BRANCH   1   2
ATOM      2  C   UNL d   1       7.274  -2.975  10.100  0.00  0.00     0.113 A 
ATOM      3  C   UNL d   1       7.952  -3.895  10.887  0.00  0.00     0.065 A 
ATOM      4 BR   UNL d   1       8.438  -3.372  12.664  0.00  0.00    -0.046 Br
ATOM      5  C   UNL d   1       8.257  -5.152  10.364  0.00  0.00     0.050 A 
ATOM      6 BR   UNL d   1       9.200  -6.422  11.457  0.00  0.00    -0.048 Br
ATOM      7  C   UNL d   1       7.881  -5.476   9.061  0.00  0.00     0.048 A 
ATOM      8 BR   UNL d   1       8.304  -7.210   8.340  0.00  0.00    -0.048 Br
ATOM      9  C   UNL d   1       7.199  -4.543   8.281  0.00  0.00     0.050 A 
ATOM     10 BR   UNL d   1       6.670  -4.970   6.482  0.00  0.00    -0.048 Br
ATOM     11  C   UNL d   1       6.894  -3.285   8.802  0.00  0.00     0.065 A 
ATOM     12 BR   UNL d   1       5.961  -1.952   7.794  0.00  0.00    -0.046 Br
ENDBRANCH   1   2
BRANCH   1  13
ATOM     13  C   UNL d   1       5.676  -1.311  10.540  0.00  0.00     0.113 A 
ATOM     14  C   UNL d   1       5.372  -0.077   9.964  0.00  0.00     0.065 A 
ATOM     15 BR   UNL d   1       6.833   0.972   9.305  0.00  0.00    -0.046 Br
ATOM     16  C   UNL d   1       4.047   0.351   9.889  0.00  0.00     0.050 A 
ATOM     17 BR   UNL d   1       3.652   2.057   9.095  0.00  0.00    -0.048 Br
ATOM     18  C   UNL d   1       3.025  -0.455  10.389  0.00  0.00     0.048 A 
ATOM     19 BR   UNL d   1       1.196   0.138  10.288  0.00  0.00    -0.048 Br
ATOM     20  C   UNL d   1       3.327  -1.688  10.965  0.00  0.00     0.050 A 
ATOM     21 BR   UNL d   1       1.933  -2.814  11.660  0.00  0.00    -0.048 Br
ATOM     22  C   UNL d   1       4.652  -2.116  11.041  0.00  0.00     0.065 A 
ATOM     23 BR   UNL d   1       5.149  -3.796  11.815  0.00  0.00    -0.046 Br
ENDBRANCH   1  13
TORSDOF 2
ENDMDL
MODEL 2
REMARK VINA RESULT:      -5.4      0.016      6.538
REMARK  2 active torsions:
REMARK  status: ('A' for Active; 'I' for Inactive)
REMARK    1  A    between atoms: O_11  and  C_12 
REMARK    2  A    between atoms: O_11  and  C_13 
ROOT
ATOM      1  O   UNL d   1       6.967  -1.724  10.612  0.00  0.00    -0.305 OA
ENDROOT
BRANCH   1   2
ATOM      2  C   UNL d   1       5.655  -1.298  10.535  0.00  0.00     0.113 A 
ATOM      3  C   UNL d   1       5.370  -0.067   9.962  0.00  0.00     0.065 A 
ATOM      4 BR   UNL d   1       6.833   0.980   9.305  0.00  0.00    -0.046 Br
ATOM      5  C   UNL d   1       4.045   0.364   9.887  0.00  0.00     0.050 A 
ATOM      6 BR   UNL d   1       3.654   2.072   9.095  0.00  0.00    -0.048 Br
ATOM      7  C   UNL d   1       3.020  -0.440  10.385  0.00  0.00     0.048 A 
ATOM      8 BR   UNL d   1       1.193   0.156  10.283  0.00  0.00    -0.048 Br
ATOM      9  C   UNL d   1       3.320  -1.675  10.958  0.00  0.00     0.050 A 
ATOM     10 BR   UNL d   1       1.922  -2.800  11.651  0.00  0.00    -0.048 Br
ATOM     11  C   UNL d   1       4.645  -2.107  11.035  0.00  0.00     0.065 A 
ATOM     12 BR   UNL d   1       5.136  -3.788  11.806  0.00  0.00    -0.046 Br
ENDBRANCH   1   2
BRANCH   1  13
ATOM     13  C   UNL d   1       7.261  -2.957  10.101  0.00  0.00     0.113 A 
ATOM     14  C   UNL d   1       7.942  -3.892  10.881  0.00  0.00     0.065 A 
ATOM     15 BR   UNL d   1       8.431  -3.369  12.658  0.00  0.00    -0.046 Br
ATOM     16  C   UNL d   1       8.244  -5.149  10.358  0.00  0.00     0.050 A 
ATOM     17 BR   UNL d   1       9.186  -6.421  11.450  0.00  0.00    -0.048 Br
ATOM     18  C   UNL d   1       7.865  -5.472   9.056  0.00  0.00     0.048 A 
ATOM     19 BR   UNL d   1       8.285  -7.207   8.334  0.00  0.00    -0.048 Br
ATOM     20  C   UNL d   1       7.184  -4.538   8.276  0.00  0.00     0.050 A 
ATOM     21 BR   UNL d   1       6.652  -4.964   6.478  0.00  0.00    -0.048 Br
ATOM     22  C   UNL d   1       6.883  -3.280   8.798  0.00  0.00     0.065 A 
ATOM     23 BR   UNL d   1       5.950  -1.945   7.791  0.00  0.00    -0.046 Br
ENDBRANCH   1  13
TORSDOF 2
ENDMDL
MODEL 3
REMARK VINA RESULT:      -5.4      0.012      2.584
REMARK  2 active torsions:
REMARK  status: ('A' for Active; 'I' for Inactive)
REMARK    1  A    between atoms: O_11  and  C_12 
REMARK    2  A    between atoms: O_11  and  C_13 
ROOT
ATOM      1  O   UNL d   1       6.970  -1.725  10.616  0.00  0.00    -0.305 OA
ENDROOT
BRANCH   1   2
ATOM      2  C   UNL d   1       7.269  -2.971  10.098  0.00  0.00     0.113 A 
ATOM      3  C   UNL d   1       6.886  -3.280   8.802  0.00  0.00     0.065 A 
ATOM      4 BR   UNL d   1       5.952  -1.944   7.796  0.00  0.00    -0.046 Br
ATOM      5  C   UNL d   1       7.186  -4.539   8.279  0.00  0.00     0.050 A 
ATOM      6 BR   UNL d   1       6.650  -4.965   6.483  0.00  0.00    -0.048 Br
ATOM      7  C   UNL d   1       7.866  -5.473   9.060  0.00  0.00     0.048 A 
ATOM      8 BR   UNL d   1       8.278  -7.211   8.340  0.00  0.00    -0.048 Br
ATOM      9  C   UNL d   1       8.246  -5.150  10.362  0.00  0.00     0.050 A 
ATOM     10 BR   UNL d   1       9.185  -6.424  11.454  0.00  0.00    -0.048 Br
ATOM     11  C   UNL d   1       7.946  -3.891  10.885  0.00  0.00     0.065 A 
ATOM     12 BR   UNL d   1       8.434  -3.372  12.661  0.00  0.00    -0.046 Br
ENDBRANCH   1   2
BRANCH   1  13
ATOM     13  C   UNL d   1       5.672  -1.305  10.540  0.00  0.00     0.113 A 
ATOM     14  C   UNL d   1       5.370  -0.069   9.967  0.00  0.00     0.065 A 
ATOM     15 BR   UNL d   1       6.833   0.979   9.310  0.00  0.00    -0.046 Br
ATOM     16  C   UNL d   1       4.046   0.360   9.891  0.00  0.00     0.050 A 
ATOM     17 BR   UNL d   1       3.653   2.068   9.099  0.00  0.00    -0.048 Br
ATOM     18  C   UNL d   1       3.022  -0.446  10.389  0.00  0.00     0.048 A 
ATOM     19 BR   UNL d   1       1.194   0.149  10.287  0.00  0.00    -0.048 Br
ATOM     20  C   UNL d   1       3.323  -1.681  10.962  0.00  0.00     0.050 A 
ATOM     21 BR   UNL d   1       1.926  -2.807  11.654  0.00  0.00    -0.048 Br
ATOM     22  C   UNL d   1       4.647  -2.110  11.038  0.00  0.00     0.065 A 
ATOM     23 BR   UNL d   1       5.142  -3.792  11.809  0.00  0.00    -0.046 Br
ENDBRANCH   1  13
TORSDOF 2
ENDMDL
MODEL 4
REMARK VINA RESULT:      -5.4      0.008      6.294
REMARK  2 active torsions:
REMARK  status: ('A' for Active; 'I' for Inactive)
REMARK    1  A    between atoms: O_11  and  C_12 
REMARK    2  A    between atoms: O_11  and  C_13 
ROOT
ATOM      1  O   UNL d   1       6.975  -1.728  10.617  0.00  0.00    -0.305 OA
ENDROOT
BRANCH   1   2
ATOM      2  C   UNL d   1       5.661  -1.305  10.540  0.00  0.00     0.113 A 
ATOM      3  C   UNL d   1       5.373  -0.076   9.967  0.00  0.00     0.065 A 
ATOM      4 BR   UNL d   1       6.832   0.976   9.310  0.00  0.00    -0.046 Br
ATOM      5  C   UNL d   1       4.046   0.352   9.892  0.00  0.00     0.050 A 
ATOM      6 BR   UNL d   1       3.651   2.059   9.101  0.00  0.00    -0.048 Br
ATOM      7  C   UNL d   1       3.024  -0.455  10.391  0.00  0.00     0.048 A 
ATOM      8 BR   UNL d   1       1.195   0.136  10.290  0.00  0.00    -0.048 Br
ATOM      9  C   UNL d   1       3.328  -1.689  10.964  0.00  0.00     0.050 A 
ATOM     10 BR   UNL d   1       1.933  -2.818  11.657  0.00  0.00    -0.048 Br
ATOM     11  C   UNL d   1       4.654  -2.118  11.040  0.00  0.00     0.065 A 
ATOM     12 BR   UNL d   1       5.151  -3.797  11.811  0.00  0.00    -0.046 Br
ENDBRANCH   1   2
BRANCH   1  13
ATOM     13  C   UNL d   1       7.272  -2.960  10.106  0.00  0.00     0.113 A 
ATOM     14  C   UNL d   1       6.894  -3.285   8.803  0.00  0.00     0.065 A 
ATOM     15 BR   UNL d   1       5.961  -1.949   7.796  0.00  0.00    -0.046 Br
ATOM     16  C   UNL d   1       7.195  -4.543   8.283  0.00  0.00     0.050 A 
ATOM     17 BR   UNL d   1       6.661  -4.971   6.486  0.00  0.00    -0.048 Br
ATOM     18  C   UNL d   1       7.874  -5.477   9.065  0.00  0.00     0.048 A 
ATOM     19 BR   UNL d   1       8.286  -7.215   8.347  0.00  0.00    -0.048 Br
ATOM     20  C   UNL d   1       8.252  -5.153  10.367  0.00  0.00     0.050 A 
ATOM     21 BR   UNL d   1       9.190  -6.426  11.461  0.00  0.00    -0.048 Br
ATOM     22  C   UNL d   1       7.951  -3.895  10.888  0.00  0.00     0.065 A 
ATOM     23 BR   UNL d   1       8.437  -3.373  12.665  0.00  0.00    -0.046 Br
ENDBRANCH   1  13
TORSDOF 2
ENDMDL
MODEL 5
REMARK VINA RESULT:      -5.4      0.010      2.584
REMARK  2 active torsions:
REMARK  status: ('A' for Active; 'I' for Inactive)
REMARK    1  A    between atoms: O_11  and  C_12 
REMARK    2  A    between atoms: O_11  and  C_13 
ROOT
ATOM      1  O   UNL d   1       6.980  -1.732  10.618  0.00  0.00    -0.305 OA
ENDROOT
BRANCH   1   2
ATOM      2  C   UNL d   1       7.280  -2.979  10.101  0.00  0.00     0.113 A 
ATOM      3  C   UNL d   1       7.958  -3.898  10.887  0.00  0.00     0.065 A 
ATOM      4 BR   UNL d   1       8.445  -3.377  12.664  0.00  0.00    -0.046 Br
ATOM      5  C   UNL d   1       8.263  -5.155  10.364  0.00  0.00     0.050 A 
ATOM      6 BR   UNL d   1       9.207  -6.426  11.455  0.00  0.00    -0.048 Br
ATOM      7  C   UNL d   1       7.886  -5.478   9.061  0.00  0.00     0.048 A 
ATOM      8 BR   UNL d   1       8.310  -7.212   8.338  0.00  0.00    -0.048 Br
ATOM      9  C   UNL d   1       7.205  -4.545   8.281  0.00  0.00     0.050 A 
ATOM     10 BR   UNL d   1       6.675  -4.971   6.481  0.00  0.00    -0.048 Br
ATOM     11  C   UNL d   1       6.900  -3.288   8.803  0.00  0.00     0.065 A 
ATOM     12 BR   UNL d   1       5.966  -1.954   7.796  0.00  0.00    -0.046 Br
ENDBRANCH   1   2
BRANCH   1  13
ATOM     13  C   UNL d   1       5.681  -1.315  10.545  0.00  0.00     0.113 A 
ATOM     14  C   UNL d   1       4.659  -2.124  11.041  0.00  0.00     0.065 A 
ATOM     15 BR   UNL d   1       5.159  -3.805  11.811  0.00  0.00    -0.046 Br
ATOM     16  C   UNL d   1       3.333  -1.699  10.964  0.00  0.00     0.050 A 
ATOM     17 BR   UNL d   1       1.939  -2.831  11.652  0.00  0.00    -0.048 Br
ATOM     18  C   UNL d   1       3.028  -0.466  10.389  0.00  0.00     0.048 A 
ATOM     19 BR   UNL d   1       1.197   0.119  10.280  0.00  0.00    -0.048 Br
ATOM     20  C   UNL d   1       4.049   0.343   9.892  0.00  0.00     0.050 A 
ATOM     21 BR   UNL d   1       3.651   2.048   9.097  0.00  0.00    -0.048 Br
ATOM     22  C   UNL d   1       5.375  -0.081   9.969  0.00  0.00     0.065 A 
ATOM     23 BR   UNL d   1       6.833   0.971   9.311  0.00  0.00    -0.046 Br
ENDBRANCH   1  13
TORSDOF 2
ENDMDL
MODEL 6
REMARK VINA RESULT:      -5.4      0.016      6.295
REMARK  2 active torsions:
REMARK  status: ('A' for Active; 'I' for Inactive)
REMARK    1  A    between atoms: O_11  and  C_12 
REMARK    2  A    between atoms: O_11  and  C_13 
ROOT
ATOM      1  O   UNL d   1       6.987  -1.741  10.613  0.00  0.00    -0.305 OA
ENDROOT
BRANCH   1   2
ATOM      2  C   UNL d   1       5.674  -1.317  10.541  0.00  0.00     0.113 A 
ATOM      3  C   UNL d   1       4.666  -2.129  11.040  0.00  0.00     0.065 A 
ATOM      4 BR   UNL d   1       5.164  -3.812  11.808  0.00  0.00    -0.046 Br
ATOM      5  C   UNL d   1       3.340  -1.702  10.965  0.00  0.00     0.050 A 
ATOM      6 BR   UNL d   1       1.946  -2.832  11.655  0.00  0.00    -0.048 Br
ATOM      7  C   UNL d   1       3.037  -0.467  10.392  0.00  0.00     0.048 A 
ATOM      8 BR   UNL d   1       1.206   0.121  10.286  0.00  0.00    -0.048 Br
ATOM      9  C   UNL d   1       4.058   0.340   9.894  0.00  0.00     0.050 A 
ATOM     10 BR   UNL d   1       3.662   2.046   9.100  0.00  0.00    -0.048 Br
ATOM     11  C   UNL d   1       5.385  -0.087   9.968  0.00  0.00     0.065 A 
ATOM     12 BR   UNL d   1       6.843   0.964   9.308  0.00  0.00    -0.046 Br
ENDBRANCH   1   2
BRANCH   1  13
ATOM     13  C   UNL d   1       7.281  -2.973  10.102  0.00  0.00     0.113 A 
ATOM     14  C   UNL d   1       7.961  -3.909  10.882  0.00  0.00     0.065 A 
ATOM     15 BR   UNL d   1       8.449  -3.387  12.660  0.00  0.00    -0.046 Br
ATOM     16  C   UNL d   1       8.263  -5.166  10.359  0.00  0.00     0.050 A 
ATOM     17 BR   UNL d   1       9.205  -6.438  11.451  0.00  0.00    -0.048 Br
ATOM     18  C   UNL d   1       7.886  -5.488   9.056  0.00  0.00     0.048 A 
ATOM     19 BR   UNL d   1       8.306  -7.222   8.334  0.00  0.00    -0.048 Br
ATOM     20  C   UNL d   1       7.206  -4.553   8.276  0.00  0.00     0.050 A 
ATOM     21 BR   UNL d   1       6.675  -4.978   6.477  0.00  0.00    -0.048 Br
ATOM     22  C   UNL d   1       6.904  -3.296   8.798  0.00  0.00     0.065 A 
ATOM     23 BR   UNL d   1       5.973  -1.960   7.792  0.00  0.00    -0.046 Br
ENDBRANCH   1  13
TORSDOF 2
ENDMDL
MODEL 7
REMARK VINA RESULT:      -5.4      0.012      3.655
REMARK  2 active torsions:
REMARK  status: ('A' for Active; 'I' for Inactive)
REMARK    1  A    between atoms: O_11  and  C_12 
REMARK    2  A    between atoms: O_11  and  C_13 
ROOT
ATOM      1  O   UNL d   1       6.982  -1.734  10.620  0.00  0.00    -0.305 OA
ENDROOT
BRANCH   1   2
ATOM      2  C   UNL d   1       7.284  -2.979  10.100  0.00  0.00     0.113 A 
ATOM      3  C   UNL d   1       6.902  -3.288   8.803  0.00  0.00     0.065 A 
ATOM      4 BR   UNL d   1       5.967  -1.952   7.798  0.00  0.00    -0.046 Br
ATOM      5  C   UNL d   1       7.204  -4.545   8.280  0.00  0.00     0.050 A 
ATOM      6 BR   UNL d   1       6.670  -4.971   6.482  0.00  0.00    -0.048 Br
ATOM      7  C   UNL d   1       7.884  -5.480   9.060  0.00  0.00     0.048 A 
ATOM      8 BR   UNL d   1       8.299  -7.216   8.339  0.00  0.00    -0.048 Br
ATOM      9  C   UNL d   1       8.263  -5.157  10.363  0.00  0.00     0.050 A 
ATOM     10 BR   UNL d   1       9.202  -6.431  11.455  0.00  0.00    -0.048 Br
ATOM     11  C   UNL d   1       7.961  -3.900  10.887  0.00  0.00     0.065 A 
ATOM     12 BR   UNL d   1       8.447  -3.382  12.664  0.00  0.00    -0.046 Br
ENDBRANCH   1   2
BRANCH   1  13
ATOM     13  C   UNL d   1       5.684  -1.317  10.545  0.00  0.00     0.113 A 
ATOM     14  C   UNL d   1       4.661  -2.125  11.042  0.00  0.00     0.065 A 
ATOM     15 BR   UNL d   1       5.161  -3.805  11.814  0.00  0.00    -0.046 Br
ATOM     16  C   UNL d   1       3.335  -1.700  10.963  0.00  0.00     0.050 A 
ATOM     17 BR   UNL d   1       1.941  -2.832  11.652  0.00  0.00    -0.048 Br
ATOM     18  C   UNL d   1       3.031  -0.467  10.387  0.00  0.00     0.048 A 
ATOM     19 BR   UNL d   1       1.200   0.117  10.276  0.00  0.00    -0.048 Br
ATOM     20  C   UNL d   1       4.053   0.341   9.890  0.00  0.00     0.050 A 
ATOM     21 BR   UNL d   1       3.655   2.045   9.092  0.00  0.00    -0.048 Br
ATOM     22  C   UNL d   1       5.379  -0.084   9.968  0.00  0.00     0.065 A 
ATOM     23 BR   UNL d   1       6.837   0.968   9.310  0.00  0.00    -0.046 Br
ENDBRANCH   1  13
TORSDOF 2
ENDMDL
MODEL 8
REMARK VINA RESULT:      -5.4      0.024      6.040
REMARK  2 active torsions:
REMARK  status: ('A' for Active; 'I' for Inactive)
REMARK    1  A    between atoms: O_11  and  C_12 
REMARK    2  A    between atoms: O_11  and  C_13 
ROOT
ATOM      1  O   UNL d   1       6.996  -1.740  10.617  0.00  0.00    -0.305 OA
ENDROOT
BRANCH   1   2
ATOM      2  C   UNL d   1       5.681  -1.319  10.542  0.00  0.00     0.113 A 
ATOM      3  C   UNL d   1       4.675  -2.133  11.041  0.00  0.00     0.065 A 
ATOM      4 BR   UNL d   1       5.175  -3.813  11.810  0.00  0.00    -0.046 Br
ATOM      5  C   UNL d   1       3.348  -1.708  10.963  0.00  0.00     0.050 A 
ATOM      6 BR   UNL d   1       1.955  -2.841  11.652  0.00  0.00    -0.048 Br
ATOM      7  C   UNL d   1       3.042  -0.475  10.389  0.00  0.00     0.048 A 
ATOM      8 BR   UNL d   1       1.211   0.109  10.280  0.00  0.00    -0.048 Br
ATOM      9  C   UNL d   1       4.063   0.334   9.891  0.00  0.00     0.050 A 
ATOM     10 BR   UNL d   1       3.664   2.039   9.096  0.00  0.00    -0.048 Br
ATOM     11  C   UNL d   1       5.390  -0.090   9.968  0.00  0.00     0.065 A 
ATOM     12 BR   UNL d   1       6.847   0.963   9.309  0.00  0.00    -0.046 Br
ENDBRANCH   1   2
BRANCH   1  13
ATOM     13  C   UNL d   1       7.294  -2.970  10.102  0.00  0.00     0.113 A 
ATOM     14  C   UNL d   1       6.916  -3.292   8.798  0.00  0.00     0.065 A 
ATOM     15 BR   UNL d   1       5.983  -1.954   7.795  0.00  0.00    -0.046 Br
ATOM     16  C   UNL d   1       7.218  -4.548   8.275  0.00  0.00     0.050 A 
ATOM     17 BR   UNL d   1       6.686  -4.972   6.476  0.00  0.00    -0.048 Br
ATOM     18  C   UNL d   1       7.898  -5.484   9.054  0.00  0.00     0.048 A 
ATOM     19 BR   UNL d   1       8.312  -7.219   8.332  0.00  0.00    -0.048 Br
ATOM     20  C   UNL d   1       8.275  -5.163  10.358  0.00  0.00     0.050 A 
ATOM     21 BR   UNL d   1       9.213  -6.438  11.449  0.00  0.00    -0.048 Br
ATOM     22  C   UNL d   1       7.973  -3.906  10.882  0.00  0.00     0.065 A 
ATOM     23 BR   UNL d   1       8.458  -3.390  12.661  0.00  0.00    -0.046 Br
ENDBRANCH   1  13
TORSDOF 2
ENDMDL
MODEL 9
REMARK VINA RESULT:      -5.1      1.802      3.890
REMARK  2 active torsions:
REMARK  status: ('A' for Active; 'I' for Inactive)
REMARK    1  A    between atoms: O_11  and  C_12 
REMARK    2  A    between atoms: O_11  and  C_13 
ROOT
ATOM      1  O   UNL d   1       4.856  -2.827   8.608  0.00  0.00    -0.305 OA
ENDROOT
BRANCH   1   2
ATOM      2  C   UNL d   1       5.970  -3.179   9.348  0.00  0.00     0.113 A 
ATOM      3  C   UNL d   1       7.189  -3.345   8.708  0.00  0.00     0.065 A 
ATOM      4 BR   UNL d   1       7.255  -3.075   6.813  0.00  0.00    -0.046 Br
ATOM      5  C   UNL d   1       8.313  -3.702   9.455  0.00  0.00     0.050 A 
ATOM      6 BR   UNL d   1      10.001  -3.935   8.563  0.00  0.00    -0.048 Br
ATOM      7  C   UNL d   1       8.204  -3.889  10.832  0.00  0.00     0.048 A 
ATOM      8 BR   UNL d   1       9.754  -4.384  11.861  0.00  0.00    -0.048 Br
ATOM      9  C   UNL d   1       6.973  -3.719  11.464  0.00  0.00     0.050 A 
ATOM     10 BR   UNL d   1       6.801  -3.971  13.362  0.00  0.00    -0.048 Br
ATOM     11  C   UNL d   1       5.849  -3.362  10.718  0.00  0.00     0.065 A 
ATOM     12 BR   UNL d   1       4.125  -3.109  11.511  0.00  0.00    -0.046 Br
ENDBRANCH   1   2
BRANCH   1  13
ATOM     13  C   UNL d   1       4.177  -1.704   8.987  0.00  0.00     0.113 A 
ATOM     14  C   UNL d   1       2.798  -1.758   9.194  0.00  0.00     0.065 A 
ATOM     15 BR   UNL d   1       1.932  -3.446   8.927  0.00  0.00    -0.046 Br
ATOM     16  C   UNL d   1       2.105  -0.611   9.577  0.00  0.00     0.050 A 
ATOM     17 BR   UNL d   1       0.204  -0.708   9.854  0.00  0.00    -0.048 Br
ATOM     18  C   UNL d   1       2.789   0.591   9.754  0.00  0.00     0.048 A 
ATOM     19 BR   UNL d   1       1.830   2.176  10.280  0.00  0.00    -0.048 Br
ATOM     20  C   UNL d   1       4.167   0.646   9.547  0.00  0.00     0.050 A 
ATOM     21 BR   UNL d   1       5.129   2.294   9.785  0.00  0.00    -0.048 Br
ATOM     22  C   UNL d   1       4.861  -0.501   9.163  0.00  0.00     0.065 A 
ATOM     23 BR   UNL d   1       6.752  -0.507   8.861  0.00  0.00    -0.046 Br
ENDBRANCH   1  13
TORSDOF 2
ENDMDL
