MODEL 1
REMARK VINA RESULT:      -5.6      0.000      0.000
REMARK  8 active torsions:
REMARK  status: ('A' for Active; 'I' for Inactive)
REMARK    1  A    between atoms: O_4  and  C_14 
REMARK    2  A    between atoms: O_4  and  C_18 
REMARK    3  A    between atoms: O_5  and  C_17 
REMARK    4  A    between atoms: O_7  and  C_23 
REMARK    5  A    between atoms: N_8  and  CA_10 
REMARK    6  A    between atoms: C_9  and  CA_10 
REMARK    7  A    between atoms: C_9  and  C_11 
REMARK    8  A    between atoms: CA_10  and  C_17 
ROOT
ATOM      1  I   UNL d   1       4.324  -2.285   6.603  0.00  0.00    -0.042 I 
ATOM      2  I   UNL d   1       7.219  -3.018  11.925  0.00  0.00    -0.042 I 
ATOM      3  C   UNL d   1       8.258  -3.638   7.775  0.00  0.00    -0.053 A 
ATOM      4  C   UNL d   1       8.281  -3.564   9.159  0.00  0.00     0.028 A 
ATOM      5  C   UNL d   1       7.135  -3.274   7.051  0.00  0.00     0.028 A 
ATOM      6  C   UNL d   1       6.008  -2.746   9.122  0.00  0.00     0.109 A 
ATOM      7  C   UNL d   1       6.002  -2.826   7.730  0.00  0.00     0.042 A 
ATOM      8  C   UNL d   1       7.148  -3.115   9.836  0.00  0.00     0.042 A 
ENDROOT
BRANCH   6   9
ATOM      9  O   UNL d   1       4.899  -2.306   9.786  0.00  0.00    -0.308 OA
BRANCH   9  10
ATOM     10  C   UNL d   1       4.723  -0.939   9.901  0.00  0.00     0.077 A 
ATOM     11  C   UNL d   1       3.477  -0.443  10.242  0.00  0.00     0.058 A 
ATOM     12  C   UNL d   1       3.301   0.936  10.358  0.00  0.00     0.042 A 
ATOM     13  I   UNL d   1       1.410   1.661  10.871  0.00  0.00    -0.042 I 
ATOM     14  C   UNL d   1       4.375   1.797  10.131  0.00  0.00     0.082 A 
ATOM     15  C   UNL d   1       5.624   1.280   9.790  0.00  0.00     0.040 A 
ATOM     16  C   UNL d   1       5.799  -0.099   9.674  0.00  0.00     0.040 A 
BRANCH  14  17
ATOM     17  O   UNL d   1       4.245   3.151  10.235  0.00  0.00    -0.359 OA
ATOM     18  H   UNL d   1       4.271   3.545   9.346  0.00  0.00     0.217 HD
ENDBRANCH  14  17
ENDBRANCH   9  10
ENDBRANCH   6   9
BRANCH   3  19
ATOM     19  C   UNL d   1       9.486  -4.123   7.041  0.00  0.00     0.085 C 
BRANCH  19  20
ATOM     20  CA  UNL d   1      10.169  -3.018   6.221  0.00  0.00     0.318 C 
BRANCH  20  21
ATOM     21  N   UNL d   1      11.025  -3.616   5.199  0.00  0.00     0.093 N 
ATOM     22  H1  UNL d   1      10.448  -4.016   4.461  0.00  0.00     0.314 HD
ATOM     23  H2  UNL d   1      11.545  -4.398   5.599  0.00  0.00     0.314 HD
ENDBRANCH  20  21
BRANCH  20  24
ATOM     24  C   UNL d   1      11.063  -2.140   7.079  0.00  0.00     0.174 C 
ATOM     25  OXT UNL d   1      11.086  -0.916   7.043  0.00  0.00    -0.648 OA
BRANCH  24  26
ATOM     26  O   UNL d   1      11.830  -2.865   7.936  0.00  0.00    -0.775 OA
ATOM     27  H   UNL d   1      12.785  -2.780   7.731  0.00  0.00     0.167 HD
ENDBRANCH  24  26
ENDBRANCH  20  24
ENDBRANCH  19  20
ENDBRANCH   3  19
TORSDOF 8
ENDMDL
MODEL 2
REMARK VINA RESULT:      -5.4      4.631      5.604
REMARK  8 active torsions:
REMARK  status: ('A' for Active; 'I' for Inactive)
REMARK    1  A    between atoms: O_4  and  C_14 
REMARK    2  A    between atoms: O_4  and  C_18 
REMARK    3  A    between atoms: O_5  and  C_17 
REMARK    4  A    between atoms: O_7  and  C_23 
REMARK    5  A    between atoms: N_8  and  CA_10 
REMARK    6  A    between atoms: C_9  and  CA_10 
REMARK    7  A    between atoms: C_9  and  C_11 
REMARK    8  A    between atoms: CA_10  and  C_17 
ROOT
ATOM      1  I   UNL d   1       1.589  -2.762  11.131  0.00  0.00    -0.042 I 
ATOM      2  I   UNL d   1       6.081   1.034   9.497  0.00  0.00    -0.042 I 
ATOM      3  C   UNL d   1       5.902  -2.837  11.414  0.00  0.00    -0.053 A 
ATOM      4  C   UNL d   1       6.334  -1.648  10.847  0.00  0.00     0.028 A 
ATOM      5  C   UNL d   1       4.555  -3.151  11.494  0.00  0.00     0.028 A 
ATOM      6  C   UNL d   1       4.032  -1.052  10.420  0.00  0.00     0.109 A 
ATOM      7  C   UNL d   1       3.614  -2.252  10.993  0.00  0.00     0.042 A 
ATOM      8  C   UNL d   1       5.391  -0.750  10.347  0.00  0.00     0.042 A 
ENDROOT
BRANCH   6   9
ATOM      9  O   UNL d   1       3.110  -0.171   9.929  0.00  0.00    -0.308 OA
BRANCH   9  10
ATOM     10  C   UNL d   1       2.930  -0.133   8.558  0.00  0.00     0.077 A 
ATOM     11  C   UNL d   1       2.432   1.018   7.973  0.00  0.00     0.058 A 
ATOM     12  C   UNL d   1       2.251   1.056   6.591  0.00  0.00     0.042 A 
ATOM     13  I   UNL d   1       1.496   2.805   5.731  0.00  0.00    -0.042 I 
ATOM     14  C   UNL d   1       2.571  -0.059   5.815  0.00  0.00     0.082 A 
ATOM     15  C   UNL d   1       3.072  -1.210   6.421  0.00  0.00     0.040 A 
ATOM     16  C   UNL d   1       3.253  -1.247   7.804  0.00  0.00     0.040 A 
BRANCH  14  17
ATOM     17  O   UNL d   1       2.409  -0.062   4.461  0.00  0.00    -0.359 OA
ATOM     18  H   UNL d   1       2.743  -0.901   4.100  0.00  0.00     0.217 HD
ENDBRANCH  14  17
ENDBRANCH   9  10
ENDBRANCH   6   9
BRANCH   3  19
ATOM     19  C   UNL d   1       6.922  -3.811  11.956  0.00  0.00     0.085 C 
BRANCH  19  20
ATOM     20  CA  UNL d   1       7.602  -3.311  13.240  0.00  0.00     0.318 C 
BRANCH  20  21
ATOM     21  N   UNL d   1       8.983  -3.786  13.286  0.00  0.00     0.093 N 
ATOM     22  H1  UNL d   1       9.571  -3.085  13.734  0.00  0.00     0.314 HD
ATOM     23  H2  UNL d   1       9.345  -3.887  12.338  0.00  0.00     0.314 HD
ENDBRANCH  20  21
BRANCH  20  24
ATOM     24  C   UNL d   1       6.919  -3.838  14.490  0.00  0.00     0.174 C 
ATOM     25  OXT UNL d   1       6.380  -4.934  14.584  0.00  0.00    -0.648 OA
BRANCH  24  26
ATOM     26  O   UNL d   1       6.998  -2.966  15.529  0.00  0.00    -0.775 OA
ATOM     27  H   UNL d   1       7.732  -2.326  15.413  0.00  0.00     0.167 HD
ENDBRANCH  24  26
ENDBRANCH  20  24
ENDBRANCH  19  20
ENDBRANCH   3  19
TORSDOF 8
ENDMDL
MODEL 3
REMARK VINA RESULT:      -5.2      4.364      5.152
REMARK  8 active torsions:
REMARK  status: ('A' for Active; 'I' for Inactive)
REMARK    1  A    between atoms: O_4  and  C_14 
REMARK    2  A    between atoms: O_4  and  C_18 
REMARK    3  A    between atoms: O_5  and  C_17 
REMARK    4  A    between atoms: O_7  and  C_23 
REMARK    5  A    between atoms: N_8  and  CA_10 
REMARK    6  A    between atoms: C_9  and  CA_10 
REMARK    7  A    between atoms: C_9  and  C_11 
REMARK    8  A    between atoms: CA_10  and  C_17 
ROOT
ATOM      1  I   UNL d   1       2.170  -3.732   9.153  0.00  0.00    -0.042 I 
ATOM      2  I   UNL d   1       6.367   0.683   9.522  0.00  0.00    -0.042 I 
ATOM      3  C   UNL d   1       5.981  -3.304  11.147  0.00  0.00    -0.053 A 
ATOM      4  C   UNL d   1       6.433  -2.035  10.820  0.00  0.00     0.028 A 
ATOM      5  C   UNL d   1       4.771  -3.784  10.673  0.00  0.00     0.028 A 
ATOM      6  C   UNL d   1       4.431  -1.694   9.510  0.00  0.00     0.109 A 
ATOM      7  C   UNL d   1       3.991  -2.973   9.850  0.00  0.00     0.042 A 
ATOM      8  C   UNL d   1       5.652  -1.225   9.995  0.00  0.00     0.042 A 
ENDROOT
BRANCH   6   9
ATOM      9  O   UNL d   1       3.667  -0.900   8.702  0.00  0.00    -0.308 OA
BRANCH   9  10
ATOM     10  C   UNL d   1       2.723  -0.092   9.309  0.00  0.00     0.077 A 
ATOM     11  C   UNL d   1       1.928   0.726   8.525  0.00  0.00     0.058 A 
ATOM     12  C   UNL d   1       0.977   1.541   9.137  0.00  0.00     0.042 A 
ATOM     13  I   UNL d   1      -0.211   2.767   7.932  0.00  0.00    -0.042 I 
ATOM     14  C   UNL d   1       0.835   1.525  10.525  0.00  0.00     0.082 A 
ATOM     15  C   UNL d   1       1.644   0.695  11.300  0.00  0.00     0.040 A 
ATOM     16  C   UNL d   1       2.596  -0.120  10.686  0.00  0.00     0.040 A 
BRANCH  14  17
ATOM     17  O   UNL d   1      -0.083   2.307  11.162  0.00  0.00    -0.359 OA
ATOM     18  H   UNL d   1       0.280   3.201  11.276  0.00  0.00     0.217 HD
ENDBRANCH  14  17
ENDBRANCH   9  10
ENDBRANCH   6   9
BRANCH   3  19
ATOM     19  C   UNL d   1       6.827  -4.182  12.040  0.00  0.00     0.085 C 
BRANCH  19  20
ATOM     20  CA  UNL d   1       7.425  -3.421  13.233  0.00  0.00     0.318 C 
BRANCH  20  21
ATOM     21  N   UNL d   1       8.866  -3.658  13.298  0.00  0.00     0.093 N 
ATOM     22  H1  UNL d   1       9.288  -3.450  12.395  0.00  0.00     0.314 HD
ATOM     23  H2  UNL d   1       9.046  -4.648  13.467  0.00  0.00     0.314 HD
ENDBRANCH  20  21
BRANCH  20  24
ATOM     24  C   UNL d   1       6.847  -3.888  14.557  0.00  0.00     0.174 C 
ATOM     25  OXT UNL d   1       6.323  -4.978  14.746  0.00  0.00    -0.648 OA
BRANCH  24  26
ATOM     26  O   UNL d   1       7.005  -2.967  15.543  0.00  0.00    -0.775 OA
ATOM     27  H   UNL d   1       7.275  -3.382  16.390  0.00  0.00     0.167 HD
ENDBRANCH  24  26
ENDBRANCH  20  24
ENDBRANCH  19  20
ENDBRANCH   3  19
TORSDOF 8
ENDMDL
MODEL 4
REMARK VINA RESULT:      -5.1      4.525      5.791
REMARK  8 active torsions:
REMARK  status: ('A' for Active; 'I' for Inactive)
REMARK    1  A    between atoms: O_4  and  C_14 
REMARK    2  A    between atoms: O_4  and  C_18 
REMARK    3  A    between atoms: O_5  and  C_17 
REMARK    4  A    between atoms: O_7  and  C_23 
REMARK    5  A    between atoms: N_8  and  CA_10 
REMARK    6  A    between atoms: C_9  and  CA_10 
REMARK    7  A    between atoms: C_9  and  C_11 
REMARK    8  A    between atoms: CA_10  and  C_17 
ROOT
ATOM      1  I   UNL d   1       0.659  -1.852  10.271  0.00  0.00    -0.042 I 
ATOM      2  I   UNL d   1       5.322   2.010   9.500  0.00  0.00    -0.042 I 
ATOM      3  C   UNL d   1       4.938  -2.083  10.837  0.00  0.00    -0.053 A 
ATOM      4  C   UNL d   1       5.430  -0.840  10.474  0.00  0.00     0.028 A 
ATOM      5  C   UNL d   1       3.584  -2.369  10.779  0.00  0.00     0.028 A 
ATOM      6  C   UNL d   1       3.175  -0.127   9.977  0.00  0.00     0.109 A 
ATOM      7  C   UNL d   1       2.697  -1.384  10.346  0.00  0.00     0.042 A 
ATOM      8  C   UNL d   1       4.542   0.145  10.041  0.00  0.00     0.042 A 
ENDROOT
BRANCH   6   9
ATOM      9  O   UNL d   1       2.306   0.838   9.552  0.00  0.00    -0.308 OA
BRANCH   9  10
ATOM     10  C   UNL d   1       2.257   1.101   8.196  0.00  0.00     0.077 A 
ATOM     11  C   UNL d   1       2.633   0.113   7.301  0.00  0.00     0.058 A 
ATOM     12  C   UNL d   1       2.582   0.379   5.933  0.00  0.00     0.042 A 
ATOM     13  I   UNL d   1       3.155  -1.127   4.603  0.00  0.00    -0.042 I 
ATOM     14  C   UNL d   1       2.157   1.628   5.481  0.00  0.00     0.082 A 
ATOM     15  C   UNL d   1       1.782   2.611   6.396  0.00  0.00     0.040 A 
ATOM     16  C   UNL d   1       1.832   2.345   7.764  0.00  0.00     0.040 A 
BRANCH  14  17
ATOM     17  O   UNL d   1       2.094   1.928   4.152  0.00  0.00    -0.359 OA
ATOM     18  H   UNL d   1       1.577   2.743   4.031  0.00  0.00     0.217 HD
ENDBRANCH  14  17
ENDBRANCH   9  10
ENDBRANCH   6   9
BRANCH   3  19
ATOM     19  C   UNL d   1       5.900  -3.150  11.305  0.00  0.00     0.085 C 
BRANCH  19  20
ATOM     20  CA  UNL d   1       6.650  -2.758  12.588  0.00  0.00     0.318 C 
BRANCH  20  21
ATOM     21  N   UNL d   1       8.044  -2.457  12.273  0.00  0.00     0.093 N 
ATOM     22  H1  UNL d   1       8.657  -3.055  12.826  0.00  0.00     0.314 HD
ATOM     23  H2  UNL d   1       8.263  -1.501  12.554  0.00  0.00     0.314 HD
ENDBRANCH  20  21
BRANCH  20  24
ATOM     24  C   UNL d   1       6.667  -3.884  13.607  0.00  0.00     0.174 C 
ATOM     25  OXT UNL d   1       5.790  -4.730  13.729  0.00  0.00    -0.648 OA
BRANCH  24  26
ATOM     26  O   UNL d   1       7.795  -3.879  14.363  0.00  0.00    -0.775 OA
ATOM     27  H   UNL d   1       7.786  -3.157  15.027  0.00  0.00     0.167 HD
ENDBRANCH  24  26
ENDBRANCH  20  24
ENDBRANCH  19  20
ENDBRANCH   3  19
TORSDOF 8
ENDMDL
MODEL 5
REMARK VINA RESULT:      -5.1      4.303      8.245
REMARK  8 active torsions:
REMARK  status: ('A' for Active; 'I' for Inactive)
REMARK    1  A    between atoms: O_4  and  C_14 
REMARK    2  A    between atoms: O_4  and  C_18 
REMARK    3  A    between atoms: O_5  and  C_17 
REMARK    4  A    between atoms: O_7  and  C_23 
REMARK    5  A    between atoms: N_8  and  CA_10 
REMARK    6  A    between atoms: C_9  and  CA_10 
REMARK    7  A    between atoms: C_9  and  C_11 
REMARK    8  A    between atoms: CA_10  and  C_17 
ROOT
ATOM      1  I   UNL d   1       2.535  -3.739  10.214  0.00  0.00    -0.042 I 
ATOM      2  I   UNL d   1       6.549   0.765   9.289  0.00  0.00    -0.042 I 
ATOM      3  C   UNL d   1       2.458   0.558  10.672  0.00  0.00    -0.053 A 
ATOM      4  C   UNL d   1       3.714   0.997  10.285  0.00  0.00     0.028 A 
ATOM      5  C   UNL d   1       2.125  -0.786  10.651  0.00  0.00     0.028 A 
ATOM      6  C   UNL d   1       4.343  -1.293   9.838  0.00  0.00     0.109 A 
ATOM      7  C   UNL d   1       3.074  -1.718  10.231  0.00  0.00     0.042 A 
ATOM      8  C   UNL d   1       4.663   0.065   9.865  0.00  0.00     0.042 A 
ENDROOT
BRANCH   6   9
ATOM      9  O   UNL d   1       5.273  -2.206   9.428  0.00  0.00    -0.308 OA
BRANCH   9  10
ATOM     10  C   UNL d   1       6.234  -2.593  10.343  0.00  0.00     0.077 A 
ATOM     11  C   UNL d   1       7.348  -3.287   9.901  0.00  0.00     0.058 A 
ATOM     12  C   UNL d   1       8.317  -3.678  10.824  0.00  0.00     0.042 A 
ATOM     13  I   UNL d   1       9.988  -4.726  10.134  0.00  0.00    -0.042 I 
ATOM     14  C   UNL d   1       8.158  -3.369  12.176  0.00  0.00     0.082 A 
ATOM     15  C   UNL d   1       7.030  -2.668  12.603  0.00  0.00     0.040 A 
ATOM     16  C   UNL d   1       6.061  -2.278  11.679  0.00  0.00     0.040 A 
BRANCH  14  17
ATOM     17  O   UNL d   1       9.082  -3.732  13.110  0.00  0.00    -0.359 OA
ATOM     18  H   UNL d   1       8.844  -4.601  13.476  0.00  0.00     0.217 HD
ENDBRANCH  14  17
ENDBRANCH   9  10
ENDBRANCH   6   9
BRANCH   3  19
ATOM     19  C   UNL d   1       1.430   1.568  11.127  0.00  0.00     0.085 C 
BRANCH  19  20
ATOM     20  CA  UNL d   1       0.327   1.809  10.085  0.00  0.00     0.318 C 
BRANCH  20  21
ATOM     21  N   UNL d   1       0.639   3.004   9.303  0.00  0.00     0.093 N 
ATOM     22  H1  UNL d   1      -0.003   3.754   9.555  0.00  0.00     0.314 HD
ATOM     23  H2  UNL d   1       0.476   2.821   8.313  0.00  0.00     0.314 HD
ENDBRANCH  20  21
BRANCH  20  24
ATOM     24  C   UNL d   1      -1.025   2.052  10.730  0.00  0.00     0.174 C 
ATOM     25  OXT UNL d   1      -1.669   3.089  10.637  0.00  0.00    -0.648 OA
BRANCH  24  26
ATOM     26  O   UNL d   1      -1.477   0.965  11.409  0.00  0.00    -0.775 OA
ATOM     27  H   UNL d   1      -1.530   0.172  10.833  0.00  0.00     0.167 HD
ENDBRANCH  24  26
ENDBRANCH  20  24
ENDBRANCH  19  20
ENDBRANCH   3  19
TORSDOF 8
ENDMDL
MODEL 6
REMARK VINA RESULT:      -4.9     17.720     20.013
REMARK  8 active torsions:
REMARK  status: ('A' for Active; 'I' for Inactive)
REMARK    1  A    between atoms: O_4  and  C_14 
REMARK    2  A    between atoms: O_4  and  C_18 
REMARK    3  A    between atoms: O_5  and  C_17 
REMARK    4  A    between atoms: O_7  and  C_23 
REMARK    5  A    between atoms: N_8  and  CA_10 
REMARK    6  A    between atoms: C_9  and  CA_10 
REMARK    7  A    between atoms: C_9  and  C_11 
REMARK    8  A    between atoms: CA_10  and  C_17 
ROOT
ATOM      1  I   UNL d   1       5.362  17.592  -1.621  0.00  0.00    -0.042 I 
ATOM      2  I   UNL d   1       4.818  11.513  -1.624  0.00  0.00    -0.042 I 
ATOM      3  C   UNL d   1       4.232  14.629   1.315  0.00  0.00    -0.053 A 
ATOM      4  C   UNL d   1       4.314  13.408   0.664  0.00  0.00     0.028 A 
ATOM      5  C   UNL d   1       4.530  15.815   0.665  0.00  0.00     0.028 A 
ATOM      6  C   UNL d   1       5.009  14.561  -1.343  0.00  0.00     0.109 A 
ATOM      7  C   UNL d   1       4.921  15.780  -0.673  0.00  0.00     0.042 A 
ATOM      8  C   UNL d   1       4.706  13.374  -0.674  0.00  0.00     0.042 A 
ENDROOT
BRANCH   6   9
ATOM      9  O   UNL d   1       5.392  14.526  -2.654  0.00  0.00    -0.308 OA
BRANCH   9  10
ATOM     10  C   UNL d   1       6.748  14.512  -2.923  0.00  0.00     0.077 A 
ATOM     11  C   UNL d   1       7.179  14.636  -4.233  0.00  0.00     0.058 A 
ATOM     12  C   UNL d   1       8.547  14.622  -4.504  0.00  0.00     0.042 A 
ATOM     13  I   UNL d   1       9.173  14.810  -6.489  0.00  0.00    -0.042 I 
ATOM     14  C   UNL d   1       9.463  14.483  -3.460  0.00  0.00     0.082 A 
ATOM     15  C   UNL d   1       9.011  14.359  -2.147  0.00  0.00     0.040 A 
ATOM     16  C   UNL d   1       7.643  14.374  -1.877  0.00  0.00     0.040 A 
BRANCH  14  17
ATOM     17  O   UNL d   1      10.808  14.464  -3.683  0.00  0.00    -0.359 OA
ATOM     18  H   UNL d   1      11.273  14.695  -2.861  0.00  0.00     0.217 HD
ENDBRANCH  14  17
ENDBRANCH   9  10
ENDBRANCH   6   9
BRANCH   3  19
ATOM     19  C   UNL d   1       3.808  14.666   2.765  0.00  0.00     0.085 C 
BRANCH  19  20
ATOM     20  CA  UNL d   1       4.810  15.408   3.662  0.00  0.00     0.318 C 
BRANCH  20  21
ATOM     21  N   UNL d   1       5.897  14.507   4.039  0.00  0.00     0.093 N 
ATOM     22  H1  UNL d   1       6.232  14.011   3.214  0.00  0.00     0.314 HD
ATOM     23  H2  UNL d   1       5.547  13.788   4.672  0.00  0.00     0.314 HD
ENDBRANCH  20  21
BRANCH  20  24
ATOM     24  C   UNL d   1       4.174  15.886   4.956  0.00  0.00     0.174 C 
ATOM     25  OXT UNL d   1       2.969  15.975   5.152  0.00  0.00    -0.648 OA
BRANCH  24  26
ATOM     26  O   UNL d   1       5.098  16.179   5.908  0.00  0.00    -0.775 OA
ATOM     27  H   UNL d   1       5.991  15.858   5.661  0.00  0.00     0.167 HD
ENDBRANCH  24  26
ENDBRANCH  20  24
ENDBRANCH  19  20
ENDBRANCH   3  19
TORSDOF 8
ENDMDL
MODEL 7
REMARK VINA RESULT:      -4.8     14.806     16.516
REMARK  8 active torsions:
REMARK  status: ('A' for Active; 'I' for Inactive)
REMARK    1  A    between atoms: O_4  and  C_14 
REMARK    2  A    between atoms: O_4  and  C_18 
REMARK    3  A    between atoms: O_5  and  C_17 
REMARK    4  A    between atoms: O_7  and  C_23 
REMARK    5  A    between atoms: N_8  and  CA_10 
REMARK    6  A    between atoms: C_9  and  CA_10 
REMARK    7  A    between atoms: C_9  and  C_11 
REMARK    8  A    between atoms: CA_10  and  C_17 
ROOT
ATOM      1  I   UNL d   1       5.471  13.524  -2.256  0.00  0.00    -0.042 I 
ATOM      2  I   UNL d   1       0.500  11.132   0.354  0.00  0.00    -0.042 I 
ATOM      3  C   UNL d   1       3.919   9.522  -1.745  0.00  0.00    -0.053 A 
ATOM      4  C   UNL d   1       2.728   9.670  -1.052  0.00  0.00     0.028 A 
ATOM      5  C   UNL d   1       4.696  10.617  -2.086  0.00  0.00     0.028 A 
ATOM      6  C   UNL d   1       3.074  12.061  -1.028  0.00  0.00     0.109 A 
ATOM      7  C   UNL d   1       4.271  11.895  -1.725  0.00  0.00     0.042 A 
ATOM      8  C   UNL d   1       2.303  10.948  -0.691  0.00  0.00     0.042 A 
ENDROOT
BRANCH   6   9
ATOM      9  O   UNL d   1       2.658  13.313  -0.673  0.00  0.00    -0.308 OA
BRANCH   9  10
ATOM     10  C   UNL d   1       3.050  13.790   0.564  0.00  0.00     0.077 A 
ATOM     11  C   UNL d   1       2.338  14.824   1.148  0.00  0.00     0.058 A 
ATOM     12  C   UNL d   1       2.734  15.304   2.395  0.00  0.00     0.042 A 
ATOM     13  I   UNL d   1       1.644  16.866   3.256  0.00  0.00    -0.042 I 
ATOM     14  C   UNL d   1       3.838  14.744   3.040  0.00  0.00     0.082 A 
ATOM     15  C   UNL d   1       4.544  13.703   2.437  0.00  0.00     0.040 A 
ATOM     16  C   UNL d   1       4.146  13.223   1.189  0.00  0.00     0.040 A 
BRANCH  14  17
ATOM     17  O   UNL d   1       4.258  15.185   4.260  0.00  0.00    -0.359 OA
ATOM     18  H   UNL d   1       3.647  14.865   4.945  0.00  0.00     0.217 HD
ENDBRANCH  14  17
ENDBRANCH   9  10
ENDBRANCH   6   9
BRANCH   3  19
ATOM     19  C   UNL d   1       4.380   8.138  -2.135  0.00  0.00     0.085 C 
BRANCH  19  20
ATOM     20  CA  UNL d   1       5.691   8.148  -2.936  0.00  0.00     0.318 C 
BRANCH  20  21
ATOM     21  N   UNL d   1       5.460   7.603  -4.272  0.00  0.00     0.093 N 
ATOM     22  H1  UNL d   1       6.339   7.571  -4.786  0.00  0.00     0.314 HD
ATOM     23  H2  UNL d   1       4.852   8.230  -4.800  0.00  0.00     0.314 HD
ENDBRANCH  20  21
BRANCH  20  24
ATOM     24  C   UNL d   1       6.761   7.283  -2.293  0.00  0.00     0.174 C 
ATOM     25  OXT UNL d   1       6.551   6.221  -1.720  0.00  0.00    -0.648 OA
BRANCH  24  26
ATOM     26  O   UNL d   1       8.008   7.799  -2.451  0.00  0.00    -0.775 OA
ATOM     27  H   UNL d   1       8.390   7.568  -3.324  0.00  0.00     0.167 HD
ENDBRANCH  24  26
ENDBRANCH  20  24
ENDBRANCH  19  20
ENDBRANCH   3  19
TORSDOF 8
ENDMDL
MODEL 8
REMARK VINA RESULT:      -4.8     18.639     19.921
REMARK  8 active torsions:
REMARK  status: ('A' for Active; 'I' for Inactive)
REMARK    1  A    between atoms: O_4  and  C_14 
REMARK    2  A    between atoms: O_4  and  C_18 
REMARK    3  A    between atoms: O_5  and  C_17 
REMARK    4  A    between atoms: O_7  and  C_23 
REMARK    5  A    between atoms: N_8  and  CA_10 
REMARK    6  A    between atoms: C_9  and  CA_10 
REMARK    7  A    between atoms: C_9  and  C_11 
REMARK    8  A    between atoms: CA_10  and  C_17 
ROOT
ATOM      1  I   UNL d   1       4.578  17.194  -0.445  0.00  0.00    -0.042 I 
ATOM      2  I   UNL d   1       9.217  18.372   3.343  0.00  0.00    -0.042 I 
ATOM      3  C   UNL d   1       8.757  16.098  -0.305  0.00  0.00    -0.053 A 
ATOM      4  C   UNL d   1       9.263  16.704   0.833  0.00  0.00     0.028 A 
ATOM      5  C   UNL d   1       7.427  16.238  -0.667  0.00  0.00     0.028 A 
ATOM      6  C   UNL d   1       7.074  17.621   1.282  0.00  0.00     0.109 A 
ATOM      7  C   UNL d   1       6.580  17.005   0.133  0.00  0.00     0.042 A 
ATOM      8  C   UNL d   1       8.416  17.471   1.632  0.00  0.00     0.042 A 
ENDROOT
BRANCH   6   9
ATOM      9  O   UNL d   1       6.244  18.373   2.065  0.00  0.00    -0.308 OA
BRANCH   9  10
ATOM     10  C   UNL d   1       5.705  17.771   3.187  0.00  0.00     0.077 A 
ATOM     11  C   UNL d   1       5.208  18.563   4.207  0.00  0.00     0.058 A 
ATOM     12  C   UNL d   1       4.664  17.955   5.338  0.00  0.00     0.042 A 
ATOM     13  I   UNL d   1       3.922  19.172   6.866  0.00  0.00    -0.042 I 
ATOM     14  C   UNL d   1       4.625  16.563   5.431  0.00  0.00     0.082 A 
ATOM     15  C   UNL d   1       5.129  15.781   4.393  0.00  0.00     0.040 A 
ATOM     16  C   UNL d   1       5.673  16.390   3.262  0.00  0.00     0.040 A 
BRANCH  14  17
ATOM     17  O   UNL d   1       4.101  15.930   6.519  0.00  0.00    -0.359 OA
ATOM     18  H   UNL d   1       4.717  15.238   6.815  0.00  0.00     0.217 HD
ENDBRANCH  14  17
ENDBRANCH   9  10
ENDBRANCH   6   9
BRANCH   3  19
ATOM     19  C   UNL d   1       9.675  15.268  -1.171  0.00  0.00     0.085 C 
BRANCH  19  20
ATOM     20  CA  UNL d   1       9.020  14.833  -2.492  0.00  0.00     0.318 C 
BRANCH  20  21
ATOM     21  N   UNL d   1       8.800  13.388  -2.482  0.00  0.00     0.093 N 
ATOM     22  H1  UNL d   1       8.929  13.017  -3.422  0.00  0.00     0.314 HD
ATOM     23  H2  UNL d   1       7.831  13.188  -2.235  0.00  0.00     0.314 HD
ENDBRANCH  20  21
BRANCH  20  24
ATOM     24  C   UNL d   1       9.901  15.131  -3.692  0.00  0.00     0.174 C 
ATOM     25  OXT UNL d   1       9.620  15.918  -4.587  0.00  0.00    -0.648 OA
BRANCH  24  26
ATOM     26  O   UNL d   1      11.075  14.448  -3.654  0.00  0.00    -0.775 OA
ATOM     27  H   UNL d   1      11.806  14.957  -4.066  0.00  0.00     0.167 HD
ENDBRANCH  24  26
ENDBRANCH  20  24
ENDBRANCH  19  20
ENDBRANCH   3  19
TORSDOF 8
ENDMDL
MODEL 9
REMARK VINA RESULT:      -4.7     18.597     20.815
REMARK  8 active torsions:
REMARK  status: ('A' for Active; 'I' for Inactive)
REMARK    1  A    between atoms: O_4  and  C_14 
REMARK    2  A    between atoms: O_4  and  C_18 
REMARK    3  A    between atoms: O_5  and  C_17 
REMARK    4  A    between atoms: O_7  and  C_23 
REMARK    5  A    between atoms: N_8  and  CA_10 
REMARK    6  A    between atoms: C_9  and  CA_10 
REMARK    7  A    between atoms: C_9  and  C_11 
REMARK    8  A    between atoms: CA_10  and  C_17 
ROOT
ATOM      1  I   UNL d   1       5.226  17.188  -1.230  0.00  0.00    -0.042 I 
ATOM      2  I   UNL d   1       9.701  17.296   2.919  0.00  0.00    -0.042 I 
ATOM      3  C   UNL d   1       5.624  15.859   2.864  0.00  0.00    -0.053 A 
ATOM      4  C   UNL d   1       6.918  16.187   3.238  0.00  0.00     0.028 A 
ATOM      5  C   UNL d   1       5.146  16.144   1.595  0.00  0.00     0.028 A 
ATOM      6  C   UNL d   1       7.288  17.111   1.037  0.00  0.00     0.109 A 
ATOM      7  C   UNL d   1       5.984  16.775   0.676  0.00  0.00     0.042 A 
ATOM      8  C   UNL d   1       7.755  16.817   2.318  0.00  0.00     0.042 A 
ENDROOT
BRANCH   6   9
ATOM      9  O   UNL d   1       8.109  17.728   0.136  0.00  0.00    -0.308 OA
BRANCH   9  10
ATOM     10  C   UNL d   1       8.743  16.932  -0.800  0.00  0.00     0.077 A 
ATOM     11  C   UNL d   1       9.228  17.508  -1.962  0.00  0.00     0.058 A 
ATOM     12  C   UNL d   1       9.867  16.704  -2.905  0.00  0.00     0.042 A 
ATOM     13  I   UNL d   1      10.590  17.597  -4.651  0.00  0.00    -0.042 I 
ATOM     14  C   UNL d   1      10.013  15.336  -2.672  0.00  0.00     0.082 A 
ATOM     15  C   UNL d   1       9.519  14.773  -1.496  0.00  0.00     0.040 A 
ATOM     16  C   UNL d   1       8.879  15.577  -0.553  0.00  0.00     0.040 A 
BRANCH  14  17
ATOM     17  O   UNL d   1      10.632  14.516  -3.568  0.00  0.00    -0.359 OA
ATOM     18  H   UNL d   1      11.037  15.054  -4.269  0.00  0.00     0.217 HD
ENDBRANCH  14  17
ENDBRANCH   9  10
ENDBRANCH   6   9
BRANCH   3  19
ATOM     19  C   UNL d   1       4.717  15.176   3.860  0.00  0.00     0.085 C 
BRANCH  19  20
ATOM     20  CA  UNL d   1       3.863  16.165   4.667  0.00  0.00     0.318 C 
BRANCH  20  21
ATOM     21  N   UNL d   1       4.142  16.011   6.093  0.00  0.00     0.093 N 
ATOM     22  H1  UNL d   1       3.658  15.189   6.450  0.00  0.00     0.314 HD
ATOM     23  H2  UNL d   1       3.759  16.805   6.608  0.00  0.00     0.314 HD
ENDBRANCH  20  21
BRANCH  20  24
ATOM     24  C   UNL d   1       2.376  15.916   4.486  0.00  0.00     0.174 C 
ATOM     25  OXT UNL d   1       1.526  16.094   5.349  0.00  0.00    -0.648 OA
BRANCH  24  26
ATOM     26  O   UNL d   1       2.071  15.500   3.228  0.00  0.00    -0.775 OA
ATOM     27  H   UNL d   1       1.889  14.537   3.197  0.00  0.00     0.167 HD
ENDBRANCH  24  26
ENDBRANCH  20  24
ENDBRANCH  19  20
ENDBRANCH   3  19
TORSDOF 8
ENDMDL
