MODEL 1
REMARK VINA RESULT:      -6.2      0.000      0.000
REMARK  1 active torsions:
REMARK  status: ('A' for Active; 'I' for Inactive)
REMARK    1  A    between atoms: O_1  and  C_13 
ROOT
ATOM      1  O   UNL d   1       7.259  -1.587   8.990  0.00  0.00    -0.298 OA
ATOM      2  C   UNL d   1       1.232   0.034  10.432  0.00  0.00    -0.005 C 
ATOM      3  C   UNL d   1       2.469   0.944  10.155  0.00  0.00    -0.002 C 
ATOM      4  C   UNL d   1       0.108   0.900  11.010  0.00  0.00     0.001 C 
ATOM      5  C   UNL d   1      -0.323   2.033  10.059  0.00  0.00    -0.014 C 
ATOM      6  C   UNL d   1       3.701   0.131   9.607  0.00  0.00    -0.036 C 
ATOM      7  C   UNL d   1       4.002  -1.043  10.592  0.00  0.00     0.001 C 
ATOM      8  C   UNL d   1       2.096   2.188   9.300  0.00  0.00     0.007 C 
ATOM      9  C   UNL d   1       0.882   2.961   9.846  0.00  0.00     0.012 C 
ATOM     10  C   UNL d   1       1.599  -1.109  11.388  0.00  0.00     0.006 C 
ATOM     11  C   UNL d   1      -1.214   0.244  11.403  0.00  0.00     0.008 C 
ATOM     12  C   UNL d   1      -1.465   2.642  10.893  0.00  0.00     0.126 C 
ATOM     13  C   UNL d   1       2.778  -1.925  10.871  0.00  0.00     0.006 C 
ATOM     14  C   UNL d   1      -2.210   1.416  11.458  0.00  0.00     0.033 C 
ATOM     15  C   UNL d   1       4.958   1.057   9.539  0.00  0.00     0.017 C 
ATOM     16  C   UNL d   1      -0.857   1.554   8.684  0.00  0.00     0.018 C 
ATOM     17  C   UNL d   1       3.417  -0.401   8.178  0.00  0.00     0.016 C 
ATOM     18  C   UNL d   1       5.180  -1.913  10.127  0.00  0.00     0.083 C 
ATOM     19  C   UNL d   1       6.289   0.399   9.903  0.00  0.00     0.079 C 
ATOM     20  C   UNL d   1       6.316  -1.074   9.592  0.00  0.00     0.127 C 
ENDROOT
BRANCH  12  21
ATOM     21  O   UNL d   1      -2.323   3.473  10.134  0.00  0.00    -0.395 OA
ATOM     22  H   UNL d   1      -1.933   3.607   9.255  0.00  0.00     0.210 HD
ENDBRANCH  12  21
TORSDOF 1
ENDMDL
MODEL 2
REMARK VINA RESULT:      -6.1      1.445      6.634
REMARK  1 active torsions:
REMARK  status: ('A' for Active; 'I' for Inactive)
REMARK    1  A    between atoms: O_1  and  C_13 
ROOT
ATOM      1  O   UNL d   1      -1.107   3.271   9.296  0.00  0.00    -0.298 OA
ATOM      2  C   UNL d   1       4.233  -0.208   9.938  0.00  0.00    -0.005 C 
ATOM      3  C   UNL d   1       2.853  -0.360  10.652  0.00  0.00    -0.002 C 
ATOM      4  C   UNL d   1       5.253  -1.101  10.653  0.00  0.00     0.001 C 
ATOM      5  C   UNL d   1       4.858  -2.590  10.639  0.00  0.00    -0.014 C 
ATOM      6  C   UNL d   1       1.746   0.565  10.020  0.00  0.00    -0.036 C 
ATOM      7  C   UNL d   1       2.276   2.034   9.998  0.00  0.00     0.001 C 
ATOM      8  C   UNL d   1       2.433  -1.850  10.795  0.00  0.00     0.007 C 
ATOM      9  C   UNL d   1       3.534  -2.738  11.402  0.00  0.00     0.012 C 
ATOM     10  C   UNL d   1       4.685   1.258   9.932  0.00  0.00     0.006 C 
ATOM     11  C   UNL d   1       6.702  -1.113  10.169  0.00  0.00     0.008 C 
ATOM     12  C   UNL d   1       6.085  -3.182  11.357  0.00  0.00     0.126 C 
ATOM     13  C   UNL d   1       3.639   2.173   9.307  0.00  0.00     0.006 C 
ATOM     14  C   UNL d   1       7.278  -2.416  10.752  0.00  0.00     0.033 C 
ATOM     15  C   UNL d   1       0.453   0.516  10.896  0.00  0.00     0.017 C 
ATOM     16  C   UNL d   1       4.712  -3.207   9.224  0.00  0.00     0.018 C 
ATOM     17  C   UNL d   1       1.378   0.084   8.592  0.00  0.00     0.016 C 
ATOM     18  C   UNL d   1       1.270   3.012   9.373  0.00  0.00     0.083 C 
ATOM     19  C   UNL d   1      -0.308   1.835  11.032  0.00  0.00     0.079 C 
ATOM     20  C   UNL d   1      -0.141   2.730   9.834  0.00  0.00     0.127 C 
ENDROOT
BRANCH  12  21
ATOM     21  O   UNL d   1       6.211  -4.579  11.174  0.00  0.00    -0.395 OA
ATOM     22  H   UNL d   1       5.973  -4.800  10.258  0.00  0.00     0.210 HD
ENDBRANCH  12  21
TORSDOF 1
ENDMDL
MODEL 3
REMARK VINA RESULT:      -6.1      1.010      6.608
REMARK  1 active torsions:
REMARK  status: ('A' for Active; 'I' for Inactive)
REMARK    1  A    between atoms: O_1  and  C_13 
ROOT
ATOM      1  O   UNL d   1      -3.510   1.676  10.306  0.00  0.00    -0.298 OA
ATOM      2  C   UNL d   1       2.846   1.153   9.703  0.00  0.00    -0.005 C 
ATOM      3  C   UNL d   1       1.836   0.223  10.445  0.00  0.00    -0.002 C 
ATOM      4  C   UNL d   1       4.268   0.746  10.103  0.00  0.00     0.001 C 
ATOM      5  C   UNL d   1       4.595  -0.716   9.742  0.00  0.00    -0.014 C 
ATOM      6  C   UNL d   1       0.338   0.599  10.140  0.00  0.00    -0.036 C 
ATOM      7  C   UNL d   1       0.131   2.116  10.452  0.00  0.00     0.001 C 
ATOM      8  C   UNL d   1       2.169  -1.281  10.237  0.00  0.00     0.007 C 
ATOM      9  C   UNL d   1       3.641  -1.625  10.530  0.00  0.00     0.012 C 
ATOM     10  C   UNL d   1       2.576   2.626  10.036  0.00  0.00     0.006 C 
ATOM     11  C   UNL d   1       5.454   1.525   9.538  0.00  0.00     0.008 C 
ATOM     12  C   UNL d   1       6.063  -0.767  10.207  0.00  0.00     0.126 C 
ATOM     13  C   UNL d   1       1.136   3.023   9.730  0.00  0.00     0.006 C 
ATOM     14  C   UNL d   1       6.651   0.579   9.736  0.00  0.00     0.033 C 
ATOM     15  C   UNL d   1      -0.615  -0.232  11.059  0.00  0.00     0.017 C 
ATOM     16  C   UNL d   1       4.497  -1.046   8.231  0.00  0.00     0.018 C 
ATOM     17  C   UNL d   1      -0.019   0.281   8.664  0.00  0.00     0.016 C 
ATOM     18  C   UNL d   1      -1.302   2.586  10.160  0.00  0.00     0.083 C 
ATOM     19  C   UNL d   1      -1.853   0.504  11.571  0.00  0.00     0.079 C 
ATOM     20  C   UNL d   1      -2.325   1.577  10.627  0.00  0.00     0.127 C 
ENDROOT
BRANCH  12  21
ATOM     21  O   UNL d   1       6.775  -1.866   9.671  0.00  0.00    -0.395 OA
ATOM     22  H   UNL d   1       7.678  -1.582   9.457  0.00  0.00     0.210 HD
ENDBRANCH  12  21
TORSDOF 1
ENDMDL
MODEL 4
REMARK VINA RESULT:      -6.0      1.674      2.361
REMARK  1 active torsions:
REMARK  status: ('A' for Active; 'I' for Inactive)
REMARK    1  A    between atoms: O_1  and  C_13 
ROOT
ATOM      1  O   UNL d   1       7.495  -4.740  10.630  0.00  0.00    -0.298 OA
ATOM      2  C   UNL d   1       2.272  -1.031  10.625  0.00  0.00    -0.005 C 
ATOM      3  C   UNL d   1       3.780  -0.628  10.655  0.00  0.00    -0.002 C 
ATOM      4  C   UNL d   1       1.429   0.212  10.929  0.00  0.00     0.001 C 
ATOM      5  C   UNL d   1       1.651   1.348   9.913  0.00  0.00    -0.014 C 
ATOM      6  C   UNL d   1       4.734  -1.856  10.406  0.00  0.00    -0.036 C 
ATOM      7  C   UNL d   1       4.372  -2.984  11.424  0.00  0.00     0.001 C 
ATOM      8  C   UNL d   1       4.072   0.599   9.747  0.00  0.00     0.007 C 
ATOM      9  C   UNL d   1       3.120   1.783   9.998  0.00  0.00     0.012 C 
ATOM     10  C   UNL d   1       1.988  -2.154  11.630  0.00  0.00     0.006 C 
ATOM     11  C   UNL d   1      -0.092   0.084  10.994  0.00  0.00     0.008 C 
ATOM     12  C   UNL d   1       0.642   2.375  10.460  0.00  0.00     0.126 C 
ATOM     13  C   UNL d   1       2.886  -3.365  11.399  0.00  0.00     0.006 C 
ATOM     14  C   UNL d   1      -0.594   1.529  10.822  0.00  0.00     0.033 C 
ATOM     15  C   UNL d   1       6.218  -1.430  10.643  0.00  0.00     0.017 C 
ATOM     16  C   UNL d   1       1.303   0.980   8.447  0.00  0.00     0.018 C 
ATOM     17  C   UNL d   1       4.607  -2.364   8.945  0.00  0.00     0.016 C 
ATOM     18  C   UNL d   1       5.237  -4.240  11.243  0.00  0.00     0.083 C 
ATOM     19  C   UNL d   1       7.113  -2.478  11.305  0.00  0.00     0.079 C 
ATOM     20  C   UNL d   1       6.685  -3.888  10.997  0.00  0.00     0.127 C 
ENDROOT
BRANCH  12  21
ATOM     21  O   UNL d   1       0.327   3.392   9.527  0.00  0.00    -0.395 OA
ATOM     22  H   UNL d   1       0.917   3.310   8.761  0.00  0.00     0.210 HD
ENDBRANCH  12  21
TORSDOF 1
ENDMDL
MODEL 5
REMARK VINA RESULT:      -5.8      6.677      9.919
REMARK  1 active torsions:
REMARK  status: ('A' for Active; 'I' for Inactive)
REMARK    1  A    between atoms: O_1  and  C_13 
ROOT
ATOM      1  O   UNL d   1      -1.165   5.507   5.565  0.00  0.00    -0.298 OA
ATOM      2  C   UNL d   1       1.307   1.260   1.456  0.00  0.00    -0.005 C 
ATOM      3  C   UNL d   1       1.790   1.660   2.885  0.00  0.00    -0.002 C 
ATOM      4  C   UNL d   1       2.402   0.422   0.788  0.00  0.00     0.001 C 
ATOM      5  C   UNL d   1       2.732  -0.864   1.570  0.00  0.00    -0.014 C 
ATOM      6  C   UNL d   1       0.750   2.574   3.635  0.00  0.00    -0.036 C 
ATOM      7  C   UNL d   1       0.415   3.799   2.726  0.00  0.00     0.001 C 
ATOM      8  C   UNL d   1       2.263   0.428   3.706  0.00  0.00     0.007 C 
ATOM      9  C   UNL d   1       3.270  -0.458   2.949  0.00  0.00     0.012 C 
ATOM     10  C   UNL d   1       0.975   2.505   0.624  0.00  0.00     0.006 C 
ATOM     11  C   UNL d   1       2.194  -0.075  -0.641  0.00  0.00     0.008 C 
ATOM     12  C   UNL d   1       3.782  -1.473   0.623  0.00  0.00     0.126 C 
ATOM     13  C   UNL d   1      -0.045   3.398   1.318  0.00  0.00     0.006 C 
ATOM     14  C   UNL d   1       3.202  -1.230  -0.784  0.00  0.00     0.033 C 
ATOM     15  C   UNL d   1       1.372   3.100   4.969  0.00  0.00     0.017 C 
ATOM     16  C   UNL d   1       1.538  -1.837   1.746  0.00  0.00     0.018 C 
ATOM     17  C   UNL d   1      -0.533   1.774   3.985  0.00  0.00     0.016 C 
ATOM     18  C   UNL d   1      -0.617   4.741   3.366  0.00  0.00     0.083 C 
ATOM     19  C   UNL d   1       1.009   4.535   5.352  0.00  0.00     0.079 C 
ATOM     20  C   UNL d   1      -0.343   4.951   4.836  0.00  0.00     0.127 C 
ENDROOT
BRANCH  12  21
ATOM     21  O   UNL d   1       4.015  -2.847   0.864  0.00  0.00    -0.395 OA
ATOM     22  H   UNL d   1       4.578  -2.939   1.650  0.00  0.00     0.210 HD
ENDBRANCH  12  21
TORSDOF 1
ENDMDL
MODEL 6
REMARK VINA RESULT:      -5.5      6.802      8.295
REMARK  1 active torsions:
REMARK  status: ('A' for Active; 'I' for Inactive)
REMARK    1  A    between atoms: O_1  and  C_13 
ROOT
ATOM      1  O   UNL d   1       3.454  -3.247  -0.909  0.00  0.00    -0.298 OA
ATOM      2  C   UNL d   1       1.737   1.222   3.347  0.00  0.00    -0.005 C 
ATOM      3  C   UNL d   1       1.787   1.298   1.788  0.00  0.00    -0.002 C 
ATOM      4  C   UNL d   1       1.541   2.639   3.897  0.00  0.00     0.001 C 
ATOM      5  C   UNL d   1       0.241   3.299   3.399  0.00  0.00    -0.014 C 
ATOM      6  C   UNL d   1       2.042  -0.109   1.128  0.00  0.00    -0.036 C 
ATOM      7  C   UNL d   1       3.327  -0.732   1.761  0.00  0.00     0.001 C 
ATOM      8  C   UNL d   1       0.568   2.064   1.204  0.00  0.00     0.007 C 
ATOM      9  C   UNL d   1       0.329   3.431   1.872  0.00  0.00     0.012 C 
ATOM     10  C   UNL d   1       3.016   0.583   3.903  0.00  0.00     0.006 C 
ATOM     11  C   UNL d   1       1.490   2.851   5.409  0.00  0.00     0.008 C 
ATOM     12  C   UNL d   1       0.327   4.632   4.166  0.00  0.00     0.126 C 
ATOM     13  C   UNL d   1       3.277  -0.790   3.294  0.00  0.00     0.006 C 
ATOM     14  C   UNL d   1       0.815   4.225   5.570  0.00  0.00     0.033 C 
ATOM     15  C   UNL d   1       2.278   0.063  -0.408  0.00  0.00     0.017 C 
ATOM     16  C   UNL d   1      -1.056   2.541   3.780  0.00  0.00     0.018 C 
ATOM     17  C   UNL d   1       0.816  -1.039   1.326  0.00  0.00     0.016 C 
ATOM     18  C   UNL d   1       3.645  -2.125   1.195  0.00  0.00     0.083 C 
ATOM     19  C   UNL d   1       3.327  -0.862  -1.026  0.00  0.00     0.079 C 
ATOM     20  C   UNL d   1       3.445  -2.176  -0.301  0.00  0.00     0.127 C 
ENDROOT
BRANCH  12  21
ATOM     21  O   UNL d   1      -0.910   5.319   4.220  0.00  0.00    -0.395 OA
ATOM     22  H   UNL d   1      -1.403   5.019   5.000  0.00  0.00     0.210 HD
ENDBRANCH  12  21
TORSDOF 1
ENDMDL
MODEL 7
REMARK VINA RESULT:      -5.4     17.890     19.553
REMARK  1 active torsions:
REMARK  status: ('A' for Active; 'I' for Inactive)
REMARK    1  A    between atoms: O_1  and  C_13 
ROOT
ATOM      1  O   UNL d   1      13.008  19.780   1.311  0.00  0.00    -0.298 OA
ATOM      2  C   UNL d   1       7.358  16.820   1.904  0.00  0.00    -0.005 C 
ATOM      3  C   UNL d   1       8.391  17.224   3.003  0.00  0.00    -0.002 C 
ATOM      4  C   UNL d   1       6.318  15.886   2.533  0.00  0.00     0.001 C 
ATOM      5  C   UNL d   1       5.557  16.539   3.702  0.00  0.00    -0.014 C 
ATOM      6  C   UNL d   1       9.537  18.145   2.438  0.00  0.00    -0.036 C 
ATOM      7  C   UNL d   1      10.185  17.436   1.206  0.00  0.00     0.001 C 
ATOM      8  C   UNL d   1       7.697  17.780   4.277  0.00  0.00     0.007 C 
ATOM      9  C   UNL d   1       6.572  16.870   4.805  0.00  0.00     0.012 C 
ATOM     10  C   UNL d   1       8.059  16.150   0.716  0.00  0.00     0.006 C 
ATOM     11  C   UNL d   1       5.204  15.314   1.658  0.00  0.00     0.008 C 
ATOM     12  C   UNL d   1       4.588  15.391   4.043  0.00  0.00     0.126 C 
ATOM     13  C   UNL d   1       9.161  17.029   0.137  0.00  0.00     0.006 C 
ATOM     14  C   UNL d   1       4.131  14.866   2.668  0.00  0.00     0.033 C 
ATOM     15  C   UNL d   1      10.637  18.349   3.529  0.00  0.00     0.017 C 
ATOM     16  C   UNL d   1       4.766  17.817   3.325  0.00  0.00     0.018 C 
ATOM     17  C   UNL d   1       8.979  19.539   2.049  0.00  0.00     0.016 C 
ATOM     18  C   UNL d   1      11.303  18.274   0.568  0.00  0.00     0.083 C 
ATOM     19  C   UNL d   1      12.078  18.390   3.021  0.00  0.00     0.079 C 
ATOM     20  C   UNL d   1      12.185  18.915   1.613  0.00  0.00     0.127 C 
ENDROOT
BRANCH  12  21
ATOM     21  O   UNL d   1       3.492  15.810   4.835  0.00  0.00    -0.395 OA
ATOM     22  H   UNL d   1       2.984  16.475   4.343  0.00  0.00     0.210 HD
ENDBRANCH  12  21
TORSDOF 1
ENDMDL
MODEL 8
REMARK VINA RESULT:      -5.1      5.161      7.229
REMARK  1 active torsions:
REMARK  status: ('A' for Active; 'I' for Inactive)
REMARK    1  A    between atoms: O_1  and  C_13 
ROOT
ATOM      1  O   UNL d   1      -0.117   2.614  -0.582  0.00  0.00    -0.298 OA
ATOM      2  C   UNL d   1       1.067   1.919   5.675  0.00  0.00    -0.005 C 
ATOM      3  C   UNL d   1       0.279   3.041   4.929  0.00  0.00    -0.002 C 
ATOM      4  C   UNL d   1       1.307   2.369   7.120  0.00  0.00     0.001 C 
ATOM      5  C   UNL d   1      -0.002   2.640   7.887  0.00  0.00    -0.014 C 
ATOM      6  C   UNL d   1       0.031   2.693   3.413  0.00  0.00    -0.036 C 
ATOM      7  C   UNL d   1       1.402   2.349   2.749  0.00  0.00     0.001 C 
ATOM      8  C   UNL d   1      -1.000   3.467   5.703  0.00  0.00     0.007 C 
ATOM      9  C   UNL d   1      -0.736   3.790   7.185  0.00  0.00     0.012 C 
ATOM     10  C   UNL d   1       2.390   1.615   4.961  0.00  0.00     0.006 C 
ATOM     11  C   UNL d   1       2.091   1.461   8.064  0.00  0.00     0.008 C 
ATOM     12  C   UNL d   1       0.584   2.996   9.266  0.00  0.00     0.126 C 
ATOM     13  C   UNL d   1       2.177   1.255   3.496  0.00  0.00     0.006 C 
ATOM     14  C   UNL d   1       1.716   1.970   9.468  0.00  0.00     0.033 C 
ATOM     15  C   UNL d   1      -0.581   3.930   2.680  0.00  0.00     0.017 C 
ATOM     16  C   UNL d   1      -0.947   1.416   8.003  0.00  0.00     0.018 C 
ATOM     17  C   UNL d   1      -0.966   1.511   3.277  0.00  0.00     0.016 C 
ATOM     18  C   UNL d   1       1.258   1.970   1.267  0.00  0.00     0.083 C 
ATOM     19  C   UNL d   1      -0.102   4.156   1.246  0.00  0.00     0.079 C 
ATOM     20  C   UNL d   1       0.284   2.877   0.552  0.00  0.00     0.127 C 
ENDROOT
BRANCH  12  21
ATOM     21  O   UNL d   1      -0.373   2.933  10.306  0.00  0.00    -0.395 OA
ATOM     22  H   UNL d   1       0.024   2.489  11.073  0.00  0.00     0.210 HD
ENDBRANCH  12  21
TORSDOF 1
ENDMDL
MODEL 9
REMARK VINA RESULT:      -5.0     18.270     20.093
REMARK  1 active torsions:
REMARK  status: ('A' for Active; 'I' for Inactive)
REMARK    1  A    between atoms: O_1  and  C_13 
ROOT
ATOM      1  O   UNL d   1       6.788  14.131  -5.426  0.00  0.00    -0.298 OA
ATOM      2  C   UNL d   1       8.306  16.102   0.478  0.00  0.00    -0.005 C 
ATOM      3  C   UNL d   1       7.224  16.646  -0.507  0.00  0.00    -0.002 C 
ATOM      4  C   UNL d   1       8.460  17.098   1.632  0.00  0.00     0.001 C 
ATOM      5  C   UNL d   1       7.151  17.313   2.415  0.00  0.00    -0.014 C 
ATOM      6  C   UNL d   1       7.031  15.714  -1.762  0.00  0.00    -0.036 C 
ATOM      7  C   UNL d   1       8.423  15.486  -2.432  0.00  0.00     0.001 C 
ATOM      8  C   UNL d   1       5.902  17.010   0.225  0.00  0.00     0.007 C 
ATOM      9  C   UNL d   1       6.115  17.912   1.455  0.00  0.00     0.012 C 
ATOM     10  C   UNL d   1       9.640  15.880  -0.247  0.00  0.00     0.006 C 
ATOM     11  C   UNL d   1       9.488  16.817   2.727  0.00  0.00     0.008 C 
ATOM     12  C   UNL d   1       7.662  18.282   3.498  0.00  0.00     0.126 C 
ATOM     13  C   UNL d   1       9.486  14.964  -1.455  0.00  0.00     0.006 C 
ATOM     14  C   UNL d   1       9.033  17.704   3.900  0.00  0.00     0.033 C 
ATOM     15  C   UNL d   1       6.089  16.409  -2.797  0.00  0.00     0.017 C 
ATOM     16  C   UNL d   1       6.572  16.032   3.070  0.00  0.00     0.018 C 
ATOM     17  C   UNL d   1       6.384  14.366  -1.350  0.00  0.00     0.016 C 
ATOM     18  C   UNL d   1       8.341  14.563  -3.658  0.00  0.00     0.083 C 
ATOM     19  C   UNL d   1       6.445  16.195  -4.268  0.00  0.00     0.079 C 
ATOM     20  C   UNL d   1       7.139  14.882  -4.515  0.00  0.00     0.127 C 
ENDROOT
BRANCH  12  21
ATOM     21  O   UNL d   1       6.789  18.382   4.607  0.00  0.00    -0.395 OA
ATOM     22  H   UNL d   1       6.505  19.306   4.702  0.00  0.00     0.210 HD
ENDBRANCH  12  21
TORSDOF 1
ENDMDL
