MODEL 1
REMARK VINA RESULT:      -7.6      0.000      0.000
REMARK  6 active torsions:
REMARK  status: ('A' for Active; 'I' for Inactive)
REMARK    1  A    between atoms: N_8  and  C_18 
REMARK    2  A    between atoms: N_9  and  N_11 
REMARK       I    between atoms: N_9  and  C_22 
REMARK    3  A    between atoms: N_10  and  C_25 
REMARK       I    between atoms: N_11  and  C_27 
REMARK    4  A    between atoms: N_12  and  C_26 
REMARK       I    between atoms: N_12  and  C_27 
REMARK    5  A    between atoms: C_19  and  C_22 
REMARK    6  A    between atoms: C_28  and  C_33 
ROOT
ATOM      1  O   UNL d   1       5.692   7.906  -1.071  0.00  0.00    -0.267 OA
ATOM      2  N   UNL d   1       5.064   9.307  -2.814  0.00  0.00    -0.263 N 
ATOM      3  C   UNL d   1       5.265   8.083  -2.208  0.00  0.00     0.260 C 
ATOM      4  H   UNL d   1       4.707   9.427  -3.756  0.00  0.00     0.190 HD
ENDROOT
BRANCH   2   5
ATOM      5  N   UNL d   1       5.355  10.451  -2.112  0.00  0.00    -0.248 N 
ATOM      6  C   UNL d   1       4.382  11.007  -1.283  0.00  0.00     0.339 C 
ATOM      7  O   UNL d   1       3.261  10.524  -1.143  0.00  0.00    -0.245 OA
ATOM      8  N   UNL d   1       4.877  12.158  -0.663  0.00  0.00    -0.308 N 
ATOM      9  H   UNL d   1       5.833  12.420  -0.890  0.00  0.00     0.170 HD
ATOM     10  H   UNL d   1       6.284  10.841  -2.228  0.00  0.00     0.192 HD
BRANCH   8  11
ATOM     11  C   UNL d   1       4.210  13.010   0.247  0.00  0.00     0.037 A 
ATOM     12  C   UNL d   1       4.871  13.471   1.385  0.00  0.00     0.045 A 
ATOM     13  C   UNL d   1       4.212  14.311   2.282  0.00  0.00     0.050 A 
ATOM     14  C   UNL d   1       2.892  14.691   2.041  0.00  0.00     0.016 A 
ATOM     15  C   UNL d   1       2.231  14.232   0.902  0.00  0.00     0.003 A 
ATOM     16  C   UNL d   1       2.889  13.391   0.005  0.00  0.00     0.029 A 
BRANCH  13  17
ATOM     17  C   UNL d   1       4.919  14.803   3.500  0.00  0.00     0.417 C 
ATOM     18  F   UNL d   1       5.679  15.917   3.280  0.00  0.00    -0.166 F 
ATOM     19  F   UNL d   1       5.778  13.888   4.040  0.00  0.00    -0.166 F 
ATOM     20  F   UNL d   1       4.061  15.137   4.507  0.00  0.00    -0.166 F 
ENDBRANCH  13  17
ENDBRANCH   8  11
ENDBRANCH   2   5
BRANCH   3  21
ATOM     21  C   UNL d   1       4.897   6.964  -3.111  0.00  0.00     0.078 C 
ATOM     22  C   UNL d   1       5.816   6.058  -3.475  0.00  0.00    -0.071 C 
ATOM     23  C   UNL d   1       5.511   4.901  -4.385  0.00  0.00     0.054 C 
ATOM     24  C   UNL d   1       7.248   6.118  -3.027  0.00  0.00     0.054 C 
ATOM     25  C   UNL d   1       6.467   4.890  -5.579  0.00  0.00     0.127 C 
ATOM     26  N   UNL d   1       7.867   4.974  -5.128  0.00  0.00    -0.380 N 
ATOM     27  C   UNL d   1       8.196   6.091  -4.229  0.00  0.00     0.127 C 
BRANCH  26  28
ATOM     28  C   UNL d   1       8.851   4.465  -5.983  0.00  0.00     0.030 A 
ATOM     29  C   UNL d   1       8.758   4.678  -7.358  0.00  0.00     0.032 A 
ATOM     30  C   UNL d   1       9.738   4.172  -8.211  0.00  0.00     0.038 A 
ATOM     31  C   UNL d   1      10.812   3.450  -7.687  0.00  0.00     0.103 A 
ATOM     32  C   UNL d   1      10.905   3.236  -6.313  0.00  0.00     0.038 A 
ATOM     33  C   UNL d   1       9.924   3.744  -5.460  0.00  0.00     0.032 A 
BRANCH  31  34
ATOM     34  N   UNL d   1      11.810   2.933  -8.555  0.00  0.00    -0.116 N 
ATOM     35  O   UNL d   1      12.315   3.688  -9.420  0.00  0.00    -0.532 OA
ATOM     36  O   UNL d   1      12.160   1.733  -8.433  0.00  0.00    -0.532 OA
ENDBRANCH  31  34
ENDBRANCH  26  28
ENDBRANCH   3  21
TORSDOF 6
ENDMDL
MODEL 2
REMARK VINA RESULT:      -7.6     17.037     18.348
REMARK  6 active torsions:
REMARK  status: ('A' for Active; 'I' for Inactive)
REMARK    1  A    between atoms: N_8  and  C_18 
REMARK    2  A    between atoms: N_9  and  N_11 
REMARK       I    between atoms: N_9  and  C_22 
REMARK    3  A    between atoms: N_10  and  C_25 
REMARK       I    between atoms: N_11  and  C_27 
REMARK    4  A    between atoms: N_12  and  C_26 
REMARK       I    between atoms: N_12  and  C_27 
REMARK    5  A    between atoms: C_19  and  C_22 
REMARK    6  A    between atoms: C_28  and  C_33 
ROOT
ATOM      1  O   UNL d   1       2.703   2.194   7.805  0.00  0.00    -0.267 OA
ATOM      2  N   UNL d   1       2.747   2.530  10.103  0.00  0.00    -0.263 N 
ATOM      3  C   UNL d   1       3.287   2.170   8.884  0.00  0.00     0.260 C 
ATOM      4  H   UNL d   1       3.252   2.504  10.982  0.00  0.00     0.190 HD
ENDROOT
BRANCH   2   5
ATOM      5  N   UNL d   1       1.444   2.957  10.151  0.00  0.00    -0.248 N 
ATOM      6  C   UNL d   1       0.504   2.200  10.848  0.00  0.00     0.339 C 
ATOM      7  O   UNL d   1       0.781   1.155  11.433  0.00  0.00    -0.245 OA
ATOM      8  N   UNL d   1      -0.754   2.805  10.777  0.00  0.00    -0.308 N 
ATOM      9  H   UNL d   1      -0.810   3.674  10.250  0.00  0.00     0.170 HD
ATOM     10  H   UNL d   1       1.223   3.823   9.672  0.00  0.00     0.192 HD
BRANCH   8  11
ATOM     11  C   UNL d   1      -1.968   2.358  11.348  0.00  0.00     0.037 A 
ATOM     12  C   UNL d   1      -2.368   2.832  12.597  0.00  0.00     0.045 A 
ATOM     13  C   UNL d   1      -3.566   2.390  13.159  0.00  0.00     0.050 A 
ATOM     14  C   UNL d   1      -4.363   1.475  12.473  0.00  0.00     0.016 A 
ATOM     15  C   UNL d   1      -3.964   1.002  11.223  0.00  0.00     0.003 A 
ATOM     16  C   UNL d   1      -2.766   1.444  10.660  0.00  0.00     0.029 A 
BRANCH  13  17
ATOM     17  C   UNL d   1      -3.993   2.897  14.496  0.00  0.00     0.417 C 
ATOM     18  F   UNL d   1      -3.031   3.625  15.138  0.00  0.00    -0.166 F 
ATOM     19  F   UNL d   1      -4.334   1.906  15.372  0.00  0.00    -0.166 F 
ATOM     20  F   UNL d   1      -5.084   3.713  14.424  0.00  0.00    -0.166 F 
ENDBRANCH  13  17
ENDBRANCH   8  11
ENDBRANCH   2   5
BRANCH   3  21
ATOM     21  C   UNL d   1       4.700   1.737   9.024  0.00  0.00     0.078 C 
ATOM     22  C   UNL d   1       4.993   0.449   9.253  0.00  0.00    -0.071 C 
ATOM     23  C   UNL d   1       6.400  -0.058   9.405  0.00  0.00     0.054 C 
ATOM     24  C   UNL d   1       3.943  -0.616   9.404  0.00  0.00     0.054 C 
ATOM     25  C   UNL d   1       6.560  -0.813  10.726  0.00  0.00     0.127 C 
ATOM     26  N   UNL d   1       5.512  -1.838  10.872  0.00  0.00    -0.380 N 
ATOM     27  C   UNL d   1       4.124  -1.375  10.721  0.00  0.00     0.127 C 
BRANCH  26  28
ATOM     28  C   UNL d   1       5.788  -2.928  11.704  0.00  0.00     0.030 A 
ATOM     29  C   UNL d   1       6.946  -2.936  12.483  0.00  0.00     0.032 A 
ATOM     30  C   UNL d   1       7.221  -4.021  13.313  0.00  0.00     0.038 A 
ATOM     31  C   UNL d   1       6.339  -5.102  13.364  0.00  0.00     0.103 A 
ATOM     32  C   UNL d   1       5.182  -5.094  12.586  0.00  0.00     0.038 A 
ATOM     33  C   UNL d   1       4.906  -4.007  11.756  0.00  0.00     0.032 A 
BRANCH  31  34
ATOM     34  N   UNL d   1       6.619  -6.208  14.208  0.00  0.00    -0.116 N 
ATOM     35  O   UNL d   1       6.345  -6.127  15.430  0.00  0.00    -0.532 OA
ATOM     36  O   UNL d   1       7.136  -7.238  13.710  0.00  0.00    -0.532 OA
ENDBRANCH  31  34
ENDBRANCH  26  28
ENDBRANCH   3  21
TORSDOF 6
ENDMDL
MODEL 3
REMARK VINA RESULT:      -7.4     22.550     25.102
REMARK  6 active torsions:
REMARK  status: ('A' for Active; 'I' for Inactive)
REMARK    1  A    between atoms: N_8  and  C_18 
REMARK    2  A    between atoms: N_9  and  N_11 
REMARK       I    between atoms: N_9  and  C_22 
REMARK    3  A    between atoms: N_10  and  C_25 
REMARK       I    between atoms: N_11  and  C_27 
REMARK    4  A    between atoms: N_12  and  C_26 
REMARK       I    between atoms: N_12  and  C_27 
REMARK    5  A    between atoms: C_19  and  C_22 
REMARK    6  A    between atoms: C_28  and  C_33 
ROOT
ATOM      1  O   UNL d   1      12.316  -8.926  11.951  0.00  0.00    -0.267 OA
ATOM      2  N   UNL d   1      12.067  -7.754  13.941  0.00  0.00    -0.263 N 
ATOM      3  C   UNL d   1      11.613  -8.399  12.808  0.00  0.00     0.260 C 
ATOM      4  H   UNL d   1      11.464  -7.328  14.637  0.00  0.00     0.190 HD
ENDROOT
BRANCH   2   5
ATOM      5  N   UNL d   1      13.419  -7.677  14.163  0.00  0.00    -0.248 N 
ATOM      6  C   UNL d   1      14.041  -8.662  14.930  0.00  0.00     0.339 C 
ATOM      7  O   UNL d   1      13.436  -9.611  15.425  0.00  0.00    -0.245 OA
ATOM      8  N   UNL d   1      15.409  -8.400  15.035  0.00  0.00    -0.308 N 
ATOM      9  H   UNL d   1      15.750  -7.567  14.560  0.00  0.00     0.170 HD
ATOM     10  H   UNL d   1      13.913  -6.895  13.748  0.00  0.00     0.192 HD
BRANCH   8  11
ATOM     11  C   UNL d   1      16.389  -9.154  15.722  0.00  0.00     0.037 A 
ATOM     12  C   UNL d   1      16.993  -8.635  16.866  0.00  0.00     0.045 A 
ATOM     13  C   UNL d   1      17.959  -9.380  17.544  0.00  0.00     0.050 A 
ATOM     14  C   UNL d   1      18.320 -10.643  17.077  0.00  0.00     0.016 A 
ATOM     15  C   UNL d   1      17.715 -11.163  15.932  0.00  0.00     0.003 A 
ATOM     16  C   UNL d   1      16.749 -10.419  15.255  0.00  0.00     0.029 A 
BRANCH  13  17
ATOM     17  C   UNL d   1      18.605  -8.824  18.768  0.00  0.00     0.417 C 
ATOM     18  F   UNL d   1      19.611  -7.939  18.501  0.00  0.00    -0.166 F 
ATOM     19  F   UNL d   1      19.172  -9.776  19.567  0.00  0.00    -0.166 F 
ATOM     20  F   UNL d   1      17.727  -8.152  19.567  0.00  0.00    -0.166 F 
ENDBRANCH  13  17
ENDBRANCH   8  11
ENDBRANCH   2   5
BRANCH   3  21
ATOM     21  C   UNL d   1      10.130  -8.387  12.734  0.00  0.00     0.078 C 
ATOM     22  C   UNL d   1       9.501  -7.524  11.923  0.00  0.00    -0.071 C 
ATOM     23  C   UNL d   1       8.004  -7.458  11.799  0.00  0.00     0.054 C 
ATOM     24  C   UNL d   1      10.226  -6.522  11.071  0.00  0.00     0.054 C 
ATOM     25  C   UNL d   1       7.505  -6.037  12.067  0.00  0.00     0.127 C 
ATOM     26  N   UNL d   1       8.240  -5.062  11.243  0.00  0.00    -0.380 N 
ATOM     27  C   UNL d   1       9.707  -5.106  11.335  0.00  0.00     0.127 C 
BRANCH  26  28
ATOM     28  C   UNL d   1       7.604  -3.848  10.960  0.00  0.00     0.030 A 
ATOM     29  C   UNL d   1       6.997  -3.123  11.986  0.00  0.00     0.032 A 
ATOM     30  C   UNL d   1       6.364  -1.913  11.706  0.00  0.00     0.038 A 
ATOM     31  C   UNL d   1       6.336  -1.428  10.397  0.00  0.00     0.103 A 
ATOM     32  C   UNL d   1       6.942  -2.152   9.372  0.00  0.00     0.038 A 
ATOM     33  C   UNL d   1       7.576  -3.362   9.653  0.00  0.00     0.032 A 
BRANCH  31  34
ATOM     34  N   UNL d   1       5.690  -0.196  10.110  0.00  0.00    -0.116 N 
ATOM     35  O   UNL d   1       4.437  -0.141  10.155  0.00  0.00    -0.532 OA
ATOM     36  O   UNL d   1       6.389   0.804   9.818  0.00  0.00    -0.532 OA
ENDBRANCH  31  34
ENDBRANCH  26  28
ENDBRANCH   3  21
TORSDOF 6
ENDMDL
MODEL 4
REMARK VINA RESULT:      -7.3     17.120     20.460
REMARK  6 active torsions:
REMARK  status: ('A' for Active; 'I' for Inactive)
REMARK    1  A    between atoms: N_8  and  C_18 
REMARK    2  A    between atoms: N_9  and  N_11 
REMARK       I    between atoms: N_9  and  C_22 
REMARK    3  A    between atoms: N_10  and  C_25 
REMARK       I    between atoms: N_11  and  C_27 
REMARK    4  A    between atoms: N_12  and  C_26 
REMARK       I    between atoms: N_12  and  C_27 
REMARK    5  A    between atoms: C_19  and  C_22 
REMARK    6  A    between atoms: C_28  and  C_33 
ROOT
ATOM      1  O   UNL d   1       5.290   2.551   9.270  0.00  0.00    -0.267 OA
ATOM      2  N   UNL d   1       4.413   0.414   9.516  0.00  0.00    -0.263 N 
ATOM      3  C   UNL d   1       4.389   1.733   9.108  0.00  0.00     0.260 C 
ATOM      4  H   UNL d   1       3.655  -0.244   9.368  0.00  0.00     0.190 HD
ENDROOT
BRANCH   2   5
ATOM      5  N   UNL d   1       5.527  -0.060  10.163  0.00  0.00    -0.248 N 
ATOM      6  C   UNL d   1       5.581  -1.405  10.527  0.00  0.00     0.339 C 
ATOM      7  O   UNL d   1       4.674  -2.202  10.297  0.00  0.00    -0.245 OA
ATOM      8  N   UNL d   1       6.791  -1.683  11.169  0.00  0.00    -0.308 N 
ATOM      9  H   UNL d   1       7.436  -0.904  11.278  0.00  0.00     0.170 HD
ATOM     10  H   UNL d   1       6.274   0.601  10.344  0.00  0.00     0.192 HD
BRANCH   8  11
ATOM     11  C   UNL d   1       7.235  -2.920  11.689  0.00  0.00     0.037 A 
ATOM     12  C   UNL d   1       8.255  -3.623  11.048  0.00  0.00     0.045 A 
ATOM     13  C   UNL d   1       8.692  -4.843  11.563  0.00  0.00     0.050 A 
ATOM     14  C   UNL d   1       8.110  -5.361  12.719  0.00  0.00     0.016 A 
ATOM     15  C   UNL d   1       7.090  -4.659  13.361  0.00  0.00     0.003 A 
ATOM     16  C   UNL d   1       6.653  -3.438  12.847  0.00  0.00     0.029 A 
BRANCH  13  17
ATOM     17  C   UNL d   1       9.782  -5.594  10.875  0.00  0.00     0.417 C 
ATOM     18  F   UNL d   1      10.676  -4.790  10.226  0.00  0.00    -0.166 F 
ATOM     19  F   UNL d   1       9.331  -6.465   9.924  0.00  0.00    -0.166 F 
ATOM     20  F   UNL d   1      10.526  -6.347  11.737  0.00  0.00    -0.166 F 
ENDBRANCH  13  17
ENDBRANCH   8  11
ENDBRANCH   2   5
BRANCH   3  21
ATOM     21  C   UNL d   1       3.112   2.067   8.428  0.00  0.00     0.078 C 
ATOM     22  C   UNL d   1       2.057   2.489   9.140  0.00  0.00    -0.071 C 
ATOM     23  C   UNL d   1       0.736   2.844   8.516  0.00  0.00     0.054 C 
ATOM     24  C   UNL d   1       2.081   2.628  10.636  0.00  0.00     0.054 C 
ATOM     25  C   UNL d   1      -0.396   2.047   9.166  0.00  0.00     0.127 C 
ATOM     26  N   UNL d   1      -0.348   2.173  10.633  0.00  0.00    -0.380 N 
ATOM     27  C   UNL d   1       0.934   1.840  11.274  0.00  0.00     0.127 C 
BRANCH  26  28
ATOM     28  C   UNL d   1      -1.541   1.975  11.337  0.00  0.00     0.030 A 
ATOM     29  C   UNL d   1      -2.135   3.039  12.017  0.00  0.00     0.032 A 
ATOM     30  C   UNL d   1      -3.325   2.842  12.717  0.00  0.00     0.038 A 
ATOM     31  C   UNL d   1      -3.921   1.580  12.738  0.00  0.00     0.103 A 
ATOM     32  C   UNL d   1      -3.327   0.517  12.059  0.00  0.00     0.038 A 
ATOM     33  C   UNL d   1      -2.138   0.714  11.358  0.00  0.00     0.032 A 
BRANCH  31  34
ATOM     34  N   UNL d   1      -5.132   1.379  13.452  0.00  0.00    -0.116 N 
ATOM     35  O   UNL d   1      -5.302   0.300  14.070  0.00  0.00    -0.532 OA
ATOM     36  O   UNL d   1      -6.000   2.285  13.445  0.00  0.00    -0.532 OA
ENDBRANCH  31  34
ENDBRANCH  26  28
ENDBRANCH   3  21
TORSDOF 6
ENDMDL
MODEL 5
REMARK VINA RESULT:      -7.3     15.967     17.625
REMARK  6 active torsions:
REMARK  status: ('A' for Active; 'I' for Inactive)
REMARK    1  A    between atoms: N_8  and  C_18 
REMARK    2  A    between atoms: N_9  and  N_11 
REMARK       I    between atoms: N_9  and  C_22 
REMARK    3  A    between atoms: N_10  and  C_25 
REMARK       I    between atoms: N_11  and  C_27 
REMARK    4  A    between atoms: N_12  and  C_26 
REMARK       I    between atoms: N_12  and  C_27 
REMARK    5  A    between atoms: C_19  and  C_22 
REMARK    6  A    between atoms: C_28  and  C_33 
ROOT
ATOM      1  O   UNL d   1      11.108  -7.443  -0.939  0.00  0.00    -0.267 OA
ATOM      2  N   UNL d   1      12.192  -7.467   1.116  0.00  0.00    -0.263 N 
ATOM      3  C   UNL d   1      11.852  -7.976  -0.122  0.00  0.00     0.260 C 
ATOM      4  H   UNL d   1      12.812  -7.927   1.773  0.00  0.00     0.190 HD
ENDROOT
BRANCH   2   5
ATOM      5  N   UNL d   1      11.671  -6.256   1.500  0.00  0.00    -0.248 N 
ATOM      6  C   UNL d   1      11.521  -5.980   2.859  0.00  0.00     0.339 C 
ATOM      7  O   UNL d   1      11.835  -6.771   3.745  0.00  0.00    -0.245 OA
ATOM      8  N   UNL d   1      10.979  -4.704   3.035  0.00  0.00    -0.308 N 
ATOM      9  H   UNL d   1      10.777  -4.176   2.190  0.00  0.00     0.170 HD
ATOM     10  H   UNL d   1      11.419  -5.606   0.765  0.00  0.00     0.192 HD
BRANCH   8  11
ATOM     11  C   UNL d   1      10.674  -4.050   4.251  0.00  0.00     0.037 A 
ATOM     12  C   UNL d   1       9.467  -4.309   4.900  0.00  0.00     0.045 A 
ATOM     13  C   UNL d   1       9.167  -3.663   6.099  0.00  0.00     0.050 A 
ATOM     14  C   UNL d   1      10.074  -2.758   6.650  0.00  0.00     0.016 A 
ATOM     15  C   UNL d   1      11.282  -2.500   6.002  0.00  0.00     0.003 A 
ATOM     16  C   UNL d   1      11.582  -3.146   4.803  0.00  0.00     0.029 A 
BRANCH  13  17
ATOM     17  C   UNL d   1       7.875  -3.939   6.792  0.00  0.00     0.417 C 
ATOM     18  F   UNL d   1       7.894  -3.641   8.125  0.00  0.00    -0.166 F 
ATOM     19  F   UNL d   1       7.489  -5.248   6.726  0.00  0.00    -0.166 F 
ATOM     20  F   UNL d   1       6.836  -3.225   6.270  0.00  0.00    -0.166 F 
ENDBRANCH  13  17
ENDBRANCH   8  11
ENDBRANCH   2   5
BRANCH   3  21
ATOM     21  C   UNL d   1      12.507  -9.286  -0.367  0.00  0.00     0.078 C 
ATOM     22  C   UNL d   1      13.730  -9.339  -0.914  0.00  0.00    -0.071 C 
ATOM     23  C   UNL d   1      14.449 -10.630  -1.189  0.00  0.00     0.054 C 
ATOM     24  C   UNL d   1      14.496  -8.115  -1.327  0.00  0.00     0.054 C 
ATOM     25  C   UNL d   1      14.871 -10.708  -2.657  0.00  0.00     0.127 C 
ATOM     26  N   UNL d   1      15.601  -9.492  -3.057  0.00  0.00    -0.380 N 
ATOM     27  C   UNL d   1      14.926  -8.212  -2.793  0.00  0.00     0.127 C 
BRANCH  26  28
ATOM     28  C   UNL d   1      16.484  -9.596  -4.137  0.00  0.00     0.030 A 
ATOM     29  C   UNL d   1      15.990  -9.612  -5.442  0.00  0.00     0.032 A 
ATOM     30  C   UNL d   1      16.870  -9.715  -6.519  0.00  0.00     0.038 A 
ATOM     31  C   UNL d   1      18.244  -9.803  -6.292  0.00  0.00     0.103 A 
ATOM     32  C   UNL d   1      18.737  -9.788  -4.988  0.00  0.00     0.038 A 
ATOM     33  C   UNL d   1      17.857  -9.684  -3.910  0.00  0.00     0.032 A 
BRANCH  31  34
ATOM     34  N   UNL d   1      19.140  -9.910  -7.388  0.00  0.00    -0.116 N 
ATOM     35  O   UNL d   1      19.400 -11.046  -7.853  0.00  0.00    -0.532 OA
ATOM     36  O   UNL d   1      19.648  -8.864  -7.862  0.00  0.00    -0.532 OA
ENDBRANCH  31  34
ENDBRANCH  26  28
ENDBRANCH   3  21
TORSDOF 6
ENDMDL
MODEL 6
REMARK VINA RESULT:      -7.3     13.838     15.957
REMARK  6 active torsions:
REMARK  status: ('A' for Active; 'I' for Inactive)
REMARK    1  A    between atoms: N_8  and  C_18 
REMARK    2  A    between atoms: N_9  and  N_11 
REMARK       I    between atoms: N_9  and  C_22 
REMARK    3  A    between atoms: N_10  and  C_25 
REMARK       I    between atoms: N_11  and  C_27 
REMARK    4  A    between atoms: N_12  and  C_26 
REMARK       I    between atoms: N_12  and  C_27 
REMARK    5  A    between atoms: C_19  and  C_22 
REMARK    6  A    between atoms: C_28  and  C_33 
ROOT
ATOM      1  O   UNL d   1       1.981  -0.121   9.150  0.00  0.00    -0.267 OA
ATOM      2  N   UNL d   1       4.024   0.138   8.076  0.00  0.00    -0.263 N 
ATOM      3  C   UNL d   1       2.739   0.510   8.419  0.00  0.00     0.260 C 
ATOM      4  H   UNL d   1       4.633   0.679   7.471  0.00  0.00     0.190 HD
ENDROOT
BRANCH   2   5
ATOM      5  N   UNL d   1       4.532  -1.034   8.578  0.00  0.00    -0.248 N 
ATOM      6  C   UNL d   1       5.394  -0.988   9.673  0.00  0.00     0.339 C 
ATOM      7  O   UNL d   1       5.729   0.059  10.223  0.00  0.00    -0.245 OA
ATOM      8  N   UNL d   1       5.795  -2.279  10.027  0.00  0.00    -0.308 N 
ATOM      9  H   UNL d   1       5.421  -3.040   9.464  0.00  0.00     0.170 HD
ATOM     10  H   UNL d   1       4.248  -1.894   8.124  0.00  0.00     0.192 HD
BRANCH   8  11
ATOM     11  C   UNL d   1       6.660  -2.664  11.077  0.00  0.00     0.037 A 
ATOM     12  C   UNL d   1       7.827  -3.373  10.795  0.00  0.00     0.045 A 
ATOM     13  C   UNL d   1       8.681  -3.752  11.831  0.00  0.00     0.050 A 
ATOM     14  C   UNL d   1       8.367  -3.422  13.149  0.00  0.00     0.016 A 
ATOM     15  C   UNL d   1       7.200  -2.712  13.432  0.00  0.00     0.003 A 
ATOM     16  C   UNL d   1       6.347  -2.333  12.395  0.00  0.00     0.029 A 
BRANCH  13  17
ATOM     17  C   UNL d   1       9.929  -4.511  11.529  0.00  0.00     0.417 C 
ATOM     18  F   UNL d   1      10.524  -4.142  10.356  0.00  0.00    -0.166 F 
ATOM     19  F   UNL d   1       9.736  -5.860  11.421  0.00  0.00    -0.166 F 
ATOM     20  F   UNL d   1      10.884  -4.356  12.491  0.00  0.00    -0.166 F 
ENDBRANCH  13  17
ENDBRANCH   8  11
ENDBRANCH   2   5
BRANCH   3  21
ATOM     21  C   UNL d   1       2.360   1.799   7.788  0.00  0.00     0.078 C 
ATOM     22  C   UNL d   1       1.694   1.812   6.624  0.00  0.00    -0.071 C 
ATOM     23  C   UNL d   1       1.280   3.080   5.931  0.00  0.00     0.054 C 
ATOM     24  C   UNL d   1       1.313   0.561   5.884  0.00  0.00     0.054 C 
ATOM     25  C   UNL d   1       1.805   3.103   4.495  0.00  0.00     0.127 C 
ATOM     26  N   UNL d   1       1.445   1.862   3.787  0.00  0.00    -0.380 N 
ATOM     27  C   UNL d   1       1.830   0.603   4.444  0.00  0.00     0.127 C 
BRANCH  26  28
ATOM     28  C   UNL d   1       1.368   1.915   2.391  0.00  0.00     0.030 A 
ATOM     29  C   UNL d   1       1.942   0.903   1.621  0.00  0.00     0.032 A 
ATOM     30  C   UNL d   1       1.865   0.955   0.230  0.00  0.00     0.038 A 
ATOM     31  C   UNL d   1       1.215   2.021  -0.393  0.00  0.00     0.103 A 
ATOM     32  C   UNL d   1       0.642   3.034   0.376  0.00  0.00     0.038 A 
ATOM     33  C   UNL d   1       0.718   2.981   1.768  0.00  0.00     0.032 A 
BRANCH  31  34
ATOM     34  N   UNL d   1       1.138   2.076  -1.809  0.00  0.00    -0.116 N 
ATOM     35  O   UNL d   1       0.786   1.049  -2.440  0.00  0.00    -0.532 OA
ATOM     36  O   UNL d   1       1.424   3.149  -2.394  0.00  0.00    -0.532 OA
ENDBRANCH  31  34
ENDBRANCH  26  28
ENDBRANCH   3  21
TORSDOF 6
ENDMDL
MODEL 7
REMARK VINA RESULT:      -7.1     16.873     18.221
REMARK  6 active torsions:
REMARK  status: ('A' for Active; 'I' for Inactive)
REMARK    1  A    between atoms: N_8  and  C_18 
REMARK    2  A    between atoms: N_9  and  N_11 
REMARK       I    between atoms: N_9  and  C_22 
REMARK    3  A    between atoms: N_10  and  C_25 
REMARK       I    between atoms: N_11  and  C_27 
REMARK    4  A    between atoms: N_12  and  C_26 
REMARK       I    between atoms: N_12  and  C_27 
REMARK    5  A    between atoms: C_19  and  C_22 
REMARK    6  A    between atoms: C_28  and  C_33 
ROOT
ATOM      1  O   UNL d   1      -2.126   2.216   8.959  0.00  0.00    -0.267 OA
ATOM      2  N   UNL d   1      -0.996   2.104  10.985  0.00  0.00    -0.263 N 
ATOM      3  C   UNL d   1      -1.096   2.292   9.621  0.00  0.00     0.260 C 
ATOM      4  H   UNL d   1      -0.132   2.175  11.510  0.00  0.00     0.190 HD
ENDROOT
BRANCH   2   5
ATOM      5  N   UNL d   1      -2.130   1.803  11.697  0.00  0.00    -0.248 N 
ATOM      6  C   UNL d   1      -2.739   2.799  12.460  0.00  0.00     0.339 C 
ATOM      7  O   UNL d   1      -2.311   3.949  12.530  0.00  0.00    -0.245 OA
ATOM      8  N   UNL d   1      -3.872   2.292  13.101  0.00  0.00    -0.308 N 
ATOM      9  H   UNL d   1      -4.088   1.312  12.934  0.00  0.00     0.170 HD
ATOM     10  H   UNL d   1      -2.482   0.855  11.630  0.00  0.00     0.192 HD
BRANCH   8  11
ATOM     11  C   UNL d   1      -4.763   2.974  13.962  0.00  0.00     0.037 A 
ATOM     12  C   UNL d   1      -4.418   3.192  15.295  0.00  0.00     0.045 A 
ATOM     13  C   UNL d   1      -5.297   3.866  16.142  0.00  0.00     0.050 A 
ATOM     14  C   UNL d   1      -6.522   4.321  15.657  0.00  0.00     0.016 A 
ATOM     15  C   UNL d   1      -6.868   4.105  14.323  0.00  0.00     0.003 A 
ATOM     16  C   UNL d   1      -5.989   3.431  13.475  0.00  0.00     0.029 A 
BRANCH  13  17
ATOM     17  C   UNL d   1      -4.927   4.098  17.568  0.00  0.00     0.417 C 
ATOM     18  F   UNL d   1      -5.452   3.174  18.428  0.00  0.00    -0.166 F 
ATOM     19  F   UNL d   1      -5.341   5.308  18.051  0.00  0.00    -0.166 F 
ATOM     20  F   UNL d   1      -3.578   4.065  17.774  0.00  0.00    -0.166 F 
ENDBRANCH  13  17
ENDBRANCH   8  11
ENDBRANCH   2   5
BRANCH   3  21
ATOM     21  C   UNL d   1       0.224   2.609   9.019  0.00  0.00     0.078 C 
ATOM     22  C   UNL d   1       1.152   1.651   8.883  0.00  0.00    -0.071 C 
ATOM     23  C   UNL d   1       2.508   1.903   8.283  0.00  0.00     0.054 C 
ATOM     24  C   UNL d   1       0.940   0.234   9.335  0.00  0.00     0.054 C 
ATOM     25  C   UNL d   1       3.612   1.455   9.243  0.00  0.00     0.127 C 
ATOM     26  N   UNL d   1       3.380   0.073   9.697  0.00  0.00    -0.380 N 
ATOM     27  C   UNL d   1       2.059  -0.207  10.282  0.00  0.00     0.127 C 
BRANCH  26  28
ATOM     28  C   UNL d   1       4.492  -0.660  10.125  0.00  0.00     0.030 A 
ATOM     29  C   UNL d   1       4.315  -1.842  10.845  0.00  0.00     0.032 A 
ATOM     30  C   UNL d   1       5.423  -2.573  11.271  0.00  0.00     0.038 A 
ATOM     31  C   UNL d   1       6.711  -2.121  10.978  0.00  0.00     0.103 A 
ATOM     32  C   UNL d   1       6.889  -0.939  10.260  0.00  0.00     0.038 A 
ATOM     33  C   UNL d   1       5.779  -0.209   9.833  0.00  0.00     0.032 A 
BRANCH  31  34
ATOM     34  N   UNL d   1       7.840  -2.864  11.413  0.00  0.00    -0.116 N 
ATOM     35  O   UNL d   1       8.346  -2.604  12.531  0.00  0.00    -0.532 OA
ATOM     36  O   UNL d   1       8.302  -3.761  10.666  0.00  0.00    -0.532 OA
ENDBRANCH  31  34
ENDBRANCH  26  28
ENDBRANCH   3  21
TORSDOF 6
ENDMDL
MODEL 8
REMARK VINA RESULT:      -7.1     14.457     15.631
REMARK  6 active torsions:
REMARK  status: ('A' for Active; 'I' for Inactive)
REMARK    1  A    between atoms: N_8  and  C_18 
REMARK    2  A    between atoms: N_9  and  N_11 
REMARK       I    between atoms: N_9  and  C_22 
REMARK    3  A    between atoms: N_10  and  C_25 
REMARK       I    between atoms: N_11  and  C_27 
REMARK    4  A    between atoms: N_12  and  C_26 
REMARK       I    between atoms: N_12  and  C_27 
REMARK    5  A    between atoms: C_19  and  C_22 
REMARK    6  A    between atoms: C_28  and  C_33 
ROOT
ATOM      1  O   UNL d   1       1.973   2.518  10.690  0.00  0.00    -0.267 OA
ATOM      2  N   UNL d   1      -0.009   1.654   9.841  0.00  0.00    -0.263 N 
ATOM      3  C   UNL d   1       1.362   1.714   9.993  0.00  0.00     0.260 C 
ATOM      4  H   UNL d   1      -0.491   0.977   9.259  0.00  0.00     0.190 HD
ENDROOT
BRANCH   2   5
ATOM      5  N   UNL d   1      -0.791   2.559  10.515  0.00  0.00    -0.248 N 
ATOM      6  C   UNL d   1      -1.769   2.092  11.393  0.00  0.00     0.339 C 
ATOM      7  O   UNL d   1      -1.973   0.898  11.600  0.00  0.00    -0.245 OA
ATOM      8  N   UNL d   1      -2.448   3.166  11.974  0.00  0.00    -0.308 N 
ATOM      9  H   UNL d   1      -2.152   4.097  11.691  0.00  0.00     0.170 HD
ATOM     10  H   UNL d   1      -0.614   3.542  10.344  0.00  0.00     0.192 HD
BRANCH   8  11
ATOM     11  C   UNL d   1      -3.505   3.121  12.913  0.00  0.00     0.037 A 
ATOM     12  C   UNL d   1      -3.227   2.951  14.268  0.00  0.00     0.045 A 
ATOM     13  C   UNL d   1      -4.270   2.907  15.194  0.00  0.00     0.050 A 
ATOM     14  C   UNL d   1      -5.590   3.033  14.763  0.00  0.00     0.016 A 
ATOM     15  C   UNL d   1      -5.869   3.204  13.407  0.00  0.00     0.003 A 
ATOM     16  C   UNL d   1      -4.826   3.248  12.482  0.00  0.00     0.029 A 
BRANCH  13  17
ATOM     17  C   UNL d   1      -3.972   2.724  16.644  0.00  0.00     0.417 C 
ATOM     18  F   UNL d   1      -3.150   1.665  16.905  0.00  0.00    -0.166 F 
ATOM     19  F   UNL d   1      -5.085   2.507  17.407  0.00  0.00    -0.166 F 
ATOM     20  F   UNL d   1      -3.358   3.811  17.195  0.00  0.00    -0.166 F 
ENDBRANCH  13  17
ENDBRANCH   8  11
ENDBRANCH   2   5
BRANCH   3  21
ATOM     21  C   UNL d   1       2.043   0.663   9.195  0.00  0.00     0.078 C 
ATOM     22  C   UNL d   1       2.475   0.931   7.954  0.00  0.00    -0.071 C 
ATOM     23  C   UNL d   1       3.171  -0.085   7.092  0.00  0.00     0.054 C 
ATOM     24  C   UNL d   1       2.289   2.266   7.291  0.00  0.00     0.054 C 
ATOM     25  C   UNL d   1       2.457  -0.227   5.746  0.00  0.00     0.127 C 
ATOM     26  N   UNL d   1       2.260   1.091   5.118  0.00  0.00    -0.380 N 
ATOM     27  C   UNL d   1       1.589   2.110   5.939  0.00  0.00     0.127 C 
BRANCH  26  28
ATOM     28  C   UNL d   1       2.121   1.127   3.726  0.00  0.00     0.030 A 
ATOM     29  C   UNL d   1       1.457   2.193   3.118  0.00  0.00     0.032 A 
ATOM     30  C   UNL d   1       1.319   2.230   1.731  0.00  0.00     0.038 A 
ATOM     31  C   UNL d   1       1.845   1.199   0.951  0.00  0.00     0.103 A 
ATOM     32  C   UNL d   1       2.507   0.133   1.558  0.00  0.00     0.038 A 
ATOM     33  C   UNL d   1       2.646   0.097   2.945  0.00  0.00     0.032 A 
BRANCH  31  34
ATOM     34  N   UNL d   1       1.703   1.235  -0.462  0.00  0.00    -0.116 N 
ATOM     35  O   UNL d   1       2.168   0.291  -1.144  0.00  0.00    -0.532 OA
ATOM     36  O   UNL d   1       1.117   2.211  -0.990  0.00  0.00    -0.532 OA
ENDBRANCH  31  34
ENDBRANCH  26  28
ENDBRANCH   3  21
TORSDOF 6
ENDMDL
MODEL 9
REMARK VINA RESULT:      -7.0      3.164      5.076
REMARK  6 active torsions:
REMARK  status: ('A' for Active; 'I' for Inactive)
REMARK    1  A    between atoms: N_8  and  C_18 
REMARK    2  A    between atoms: N_9  and  N_11 
REMARK       I    between atoms: N_9  and  C_22 
REMARK    3  A    between atoms: N_10  and  C_25 
REMARK       I    between atoms: N_11  and  C_27 
REMARK    4  A    between atoms: N_12  and  C_26 
REMARK       I    between atoms: N_12  and  C_27 
REMARK    5  A    between atoms: C_19  and  C_22 
REMARK    6  A    between atoms: C_28  and  C_33 
ROOT
ATOM      1  O   UNL d   1       2.654  13.092  -1.623  0.00  0.00    -0.267 OA
ATOM      2  N   UNL d   1       2.408  12.530   0.617  0.00  0.00    -0.263 N 
ATOM      3  C   UNL d   1       2.386  12.282  -0.741  0.00  0.00     0.260 C 
ATOM      4  H   UNL d   1       2.184  11.842   1.327  0.00  0.00     0.190 HD
ENDROOT
BRANCH   2   5
ATOM      5  N   UNL d   1       2.756  13.783   1.057  0.00  0.00    -0.248 N 
ATOM      6  C   UNL d   1       3.893  13.934   1.850  0.00  0.00     0.339 C 
ATOM      7  O   UNL d   1       4.612  12.994   2.182  0.00  0.00    -0.245 OA
ATOM      8  N   UNL d   1       4.071  15.278   2.188  0.00  0.00    -0.308 N 
ATOM      9  H   UNL d   1       3.381  15.932   1.827  0.00  0.00     0.170 HD
ATOM     10  H   UNL d   1       2.163  14.555   0.775  0.00  0.00     0.192 HD
BRANCH   8  11
ATOM     11  C   UNL d   1       5.099  15.848   2.975  0.00  0.00     0.037 A 
ATOM     12  C   UNL d   1       6.353  16.091   2.416  0.00  0.00     0.045 A 
ATOM     13  C   UNL d   1       7.366  16.654   3.192  0.00  0.00     0.050 A 
ATOM     14  C   UNL d   1       7.124  16.973   4.528  0.00  0.00     0.016 A 
ATOM     15  C   UNL d   1       5.870  16.730   5.088  0.00  0.00     0.003 A 
ATOM     16  C   UNL d   1       4.857  16.168   4.311  0.00  0.00     0.029 A 
BRANCH  13  17
ATOM     17  C   UNL d   1       8.707  16.913   2.594  0.00  0.00     0.417 C 
ATOM     18  F   UNL d   1       8.885  16.326   1.373  0.00  0.00    -0.166 F 
ATOM     19  F   UNL d   1       9.744  16.461   3.360  0.00  0.00    -0.166 F 
ATOM     20  F   UNL d   1       8.948  18.242   2.400  0.00  0.00    -0.166 F 
ENDBRANCH  13  17
ENDBRANCH   8  11
ENDBRANCH   2   5
BRANCH   3  21
ATOM     21  C   UNL d   1       1.990  10.881  -1.031  0.00  0.00     0.078 C 
ATOM     22  C   UNL d   1       2.924   9.929  -1.168  0.00  0.00    -0.071 C 
ATOM     23  C   UNL d   1       2.593   8.492  -1.461  0.00  0.00     0.054 C 
ATOM     24  C   UNL d   1       4.397  10.205  -1.063  0.00  0.00     0.054 C 
ATOM     25  C   UNL d   1       3.337   8.012  -2.708  0.00  0.00     0.127 C 
ATOM     26  N   UNL d   1       4.777   8.310  -2.604  0.00  0.00    -0.380 N 
ATOM     27  C   UNL d   1       5.133   9.706  -2.310  0.00  0.00     0.127 C 
BRANCH  26  28
ATOM     28  C   UNL d   1       5.654   7.518  -3.352  0.00  0.00     0.030 A 
ATOM     29  C   UNL d   1       5.305   7.120  -4.644  0.00  0.00     0.032 A 
ATOM     30  C   UNL d   1       6.180   6.331  -5.390  0.00  0.00     0.038 A 
ATOM     31  C   UNL d   1       7.403   5.939  -4.845  0.00  0.00     0.103 A 
ATOM     32  C   UNL d   1       7.752   6.336  -3.555  0.00  0.00     0.038 A 
ATOM     33  C   UNL d   1       6.877   7.126  -2.809  0.00  0.00     0.032 A 
BRANCH  31  34
ATOM     34  N   UNL d   1       8.293   5.134  -5.605  0.00  0.00    -0.116 N 
ATOM     35  O   UNL d   1       7.835   4.160  -6.248  0.00  0.00    -0.532 OA
ATOM     36  O   UNL d   1       9.516   5.419  -5.612  0.00  0.00    -0.532 OA
ENDBRANCH  31  34
ENDBRANCH  26  28
ENDBRANCH   3  21
TORSDOF 6
ENDMDL
