MODEL 1
REMARK VINA RESULT:      -5.4      0.000      0.000
REMARK  2 active torsions:
REMARK  status: ('A' for Active; 'I' for Inactive)
REMARK    1  A    between atoms: O_11  and  C_12 
REMARK    2  A    between atoms: O_11  and  C_13 
ROOT
ATOM      1  O   UNL d   1       6.980  -1.731  10.626  0.00  0.00    -0.305 OA
ENDROOT
BRANCH   1   2
ATOM      2  C   UNL d   1       7.284  -2.975  10.107  0.00  0.00     0.113 A 
ATOM      3  C   UNL d   1       7.964  -3.894  10.892  0.00  0.00     0.065 A 
ATOM      4 BR   UNL d   1       8.446  -3.376  12.672  0.00  0.00    -0.046 Br
ATOM      5  C   UNL d   1       8.274  -5.149  10.366  0.00  0.00     0.050 A 
ATOM      6 BR   UNL d   1       9.219  -6.420  11.456  0.00  0.00    -0.048 Br
ATOM      7  C   UNL d   1       7.900  -5.470   9.062  0.00  0.00     0.048 A 
ATOM      8 BR   UNL d   1       8.330  -7.200   8.336  0.00  0.00    -0.048 Br
ATOM      9  C   UNL d   1       7.217  -4.537   8.283  0.00  0.00     0.050 A 
ATOM     10 BR   UNL d   1       6.692  -4.960   6.482  0.00  0.00    -0.048 Br
ATOM     11  C   UNL d   1       6.907  -3.282   8.807  0.00  0.00     0.065 A 
ATOM     12 BR   UNL d   1       5.972  -1.948   7.802  0.00  0.00    -0.046 Br
ENDBRANCH   1   2
BRANCH   1  13
ATOM     13  C   UNL d   1       5.680  -1.315  10.548  0.00  0.00     0.113 A 
ATOM     14  C   UNL d   1       5.375  -0.082   9.972  0.00  0.00     0.065 A 
ATOM     15 BR   UNL d   1       6.835   0.971   9.316  0.00  0.00    -0.046 Br
ATOM     16  C   UNL d   1       4.049   0.343   9.894  0.00  0.00     0.050 A 
ATOM     17 BR   UNL d   1       3.652   2.048   9.100  0.00  0.00    -0.048 Br
ATOM     18  C   UNL d   1       3.028  -0.465  10.392  0.00  0.00     0.048 A 
ATOM     19 BR   UNL d   1       1.198   0.123  10.287  0.00  0.00    -0.048 Br
ATOM     20  C   UNL d   1       3.332  -1.698  10.968  0.00  0.00     0.050 A 
ATOM     21 BR   UNL d   1       1.938  -2.828  11.660  0.00  0.00    -0.048 Br
ATOM     22  C   UNL d   1       4.658  -2.123  11.046  0.00  0.00     0.065 A 
ATOM     23 BR   UNL d   1       5.157  -3.802  11.820  0.00  0.00    -0.046 Br
ENDBRANCH   1  13
TORSDOF 2
ENDMDL
MODEL 2
REMARK VINA RESULT:      -5.4      0.010      6.539
REMARK  2 active torsions:
REMARK  status: ('A' for Active; 'I' for Inactive)
REMARK    1  A    between atoms: O_11  and  C_12 
REMARK    2  A    between atoms: O_11  and  C_13 
ROOT
ATOM      1  O   UNL d   1       6.984  -1.737  10.616  0.00  0.00    -0.305 OA
ENDROOT
BRANCH   1   2
ATOM      2  C   UNL d   1       5.669  -1.316  10.541  0.00  0.00     0.113 A 
ATOM      3  C   UNL d   1       5.378  -0.087   9.969  0.00  0.00     0.065 A 
ATOM      4 BR   UNL d   1       6.835   0.967   9.311  0.00  0.00    -0.046 Br
ATOM      5  C   UNL d   1       4.051   0.339   9.895  0.00  0.00     0.050 A 
ATOM      6 BR   UNL d   1       3.651   2.045   9.104  0.00  0.00    -0.048 Br
ATOM      7  C   UNL d   1       3.031  -0.470  10.394  0.00  0.00     0.048 A 
ATOM      8 BR   UNL d   1       1.200   0.118  10.294  0.00  0.00    -0.048 Br
ATOM      9  C   UNL d   1       3.336  -1.704  10.967  0.00  0.00     0.050 A 
ATOM     10 BR   UNL d   1       1.944  -2.835  11.660  0.00  0.00    -0.048 Br
ATOM     11  C   UNL d   1       4.663  -2.130  11.041  0.00  0.00     0.065 A 
ATOM     12 BR   UNL d   1       5.163  -3.810  11.811  0.00  0.00    -0.046 Br
ENDBRANCH   1   2
BRANCH   1  13
ATOM     13  C   UNL d   1       7.282  -2.968  10.104  0.00  0.00     0.113 A 
ATOM     14  C   UNL d   1       7.964  -3.902  10.885  0.00  0.00     0.065 A 
ATOM     15 BR   UNL d   1       8.446  -3.381  12.664  0.00  0.00    -0.046 Br
ATOM     16  C   UNL d   1       8.271  -5.157  10.361  0.00  0.00     0.050 A 
ATOM     17 BR   UNL d   1       9.214  -6.428  11.453  0.00  0.00    -0.048 Br
ATOM     18  C   UNL d   1       7.897  -5.479   9.057  0.00  0.00     0.048 A 
ATOM     19 BR   UNL d   1       8.323  -7.211   8.333  0.00  0.00    -0.048 Br
ATOM     20  C   UNL d   1       7.216  -4.546   8.276  0.00  0.00     0.050 A 
ATOM     21 BR   UNL d   1       6.690  -4.970   6.476  0.00  0.00    -0.048 Br
ATOM     22  C   UNL d   1       6.909  -3.290   8.799  0.00  0.00     0.065 A 
ATOM     23 BR   UNL d   1       5.975  -1.955   7.792  0.00  0.00    -0.046 Br
ENDBRANCH   1  13
TORSDOF 2
ENDMDL
MODEL 3
REMARK VINA RESULT:      -5.4      0.019      2.584
REMARK  2 active torsions:
REMARK  status: ('A' for Active; 'I' for Inactive)
REMARK    1  A    between atoms: O_11  and  C_12 
REMARK    2  A    between atoms: O_11  and  C_13 
ROOT
ATOM      1  O   UNL d   1       6.978  -1.730  10.615  0.00  0.00    -0.305 OA
ENDROOT
BRANCH   1   2
ATOM      2  C   UNL d   1       7.277  -2.976  10.097  0.00  0.00     0.113 A 
ATOM      3  C   UNL d   1       6.894  -3.286   8.801  0.00  0.00     0.065 A 
ATOM      4 BR   UNL d   1       5.959  -1.951   7.795  0.00  0.00    -0.046 Br
ATOM      5  C   UNL d   1       7.195  -4.545   8.279  0.00  0.00     0.050 A 
ATOM      6 BR   UNL d   1       6.659  -4.972   6.482  0.00  0.00    -0.048 Br
ATOM      7  C   UNL d   1       7.875  -5.479   9.059  0.00  0.00     0.048 A 
ATOM      8 BR   UNL d   1       8.287  -7.216   8.340  0.00  0.00    -0.048 Br
ATOM      9  C   UNL d   1       8.255  -5.155  10.361  0.00  0.00     0.050 A 
ATOM     10 BR   UNL d   1       9.195  -6.428  11.454  0.00  0.00    -0.048 Br
ATOM     11  C   UNL d   1       7.954  -3.897  10.884  0.00  0.00     0.065 A 
ATOM     12 BR   UNL d   1       8.442  -3.377  12.660  0.00  0.00    -0.046 Br
ENDBRANCH   1   2
BRANCH   1  13
ATOM     13  C   UNL d   1       5.680  -1.311  10.539  0.00  0.00     0.113 A 
ATOM     14  C   UNL d   1       5.377  -0.078   9.963  0.00  0.00     0.065 A 
ATOM     15 BR   UNL d   1       6.838   0.970   9.302  0.00  0.00    -0.046 Br
ATOM     16  C   UNL d   1       4.052   0.351   9.888  0.00  0.00     0.050 A 
ATOM     17 BR   UNL d   1       3.657   2.056   9.092  0.00  0.00    -0.048 Br
ATOM     18  C   UNL d   1       3.029  -0.454  10.389  0.00  0.00     0.048 A 
ATOM     19 BR   UNL d   1       1.200   0.140  10.288  0.00  0.00    -0.048 Br
ATOM     20  C   UNL d   1       3.331  -1.687  10.965  0.00  0.00     0.050 A 
ATOM     21 BR   UNL d   1       1.936  -2.812  11.662  0.00  0.00    -0.048 Br
ATOM     22  C   UNL d   1       4.656  -2.116  11.041  0.00  0.00     0.065 A 
ATOM     23 BR   UNL d   1       5.152  -3.795  11.816  0.00  0.00    -0.046 Br
ENDBRANCH   1  13
TORSDOF 2
ENDMDL
MODEL 4
REMARK VINA RESULT:      -5.4      0.016      6.294
REMARK  2 active torsions:
REMARK  status: ('A' for Active; 'I' for Inactive)
REMARK    1  A    between atoms: O_11  and  C_12 
REMARK    2  A    between atoms: O_11  and  C_13 
ROOT
ATOM      1  O   UNL d   1       6.990  -1.741  10.618  0.00  0.00    -0.305 OA
ENDROOT
BRANCH   1   2
ATOM      2  C   UNL d   1       5.677  -1.317  10.543  0.00  0.00     0.113 A 
ATOM      3  C   UNL d   1       4.669  -2.127  11.043  0.00  0.00     0.065 A 
ATOM      4 BR   UNL d   1       5.165  -3.809  11.815  0.00  0.00    -0.046 Br
ATOM      5  C   UNL d   1       3.343  -1.700  10.966  0.00  0.00     0.050 A 
ATOM      6 BR   UNL d   1       1.947  -2.828  11.656  0.00  0.00    -0.048 Br
ATOM      7  C   UNL d   1       3.041  -0.466  10.390  0.00  0.00     0.048 A 
ATOM      8 BR   UNL d   1       1.211   0.123  10.281  0.00  0.00    -0.048 Br
ATOM      9  C   UNL d   1       4.063   0.340   9.891  0.00  0.00     0.050 A 
ATOM     10 BR   UNL d   1       3.668   2.044   9.093  0.00  0.00    -0.048 Br
ATOM     11  C   UNL d   1       5.389  -0.088   9.968  0.00  0.00     0.065 A 
ATOM     12 BR   UNL d   1       6.848   0.961   9.307  0.00  0.00    -0.046 Br
ENDBRANCH   1   2
BRANCH   1  13
ATOM     13  C   UNL d   1       7.285  -2.973  10.106  0.00  0.00     0.113 A 
ATOM     14  C   UNL d   1       7.965  -3.909  10.886  0.00  0.00     0.065 A 
ATOM     15 BR   UNL d   1       8.452  -3.388  12.664  0.00  0.00    -0.046 Br
ATOM     16  C   UNL d   1       8.268  -5.165  10.363  0.00  0.00     0.050 A 
ATOM     17 BR   UNL d   1       9.209  -6.438  11.454  0.00  0.00    -0.048 Br
ATOM     18  C   UNL d   1       7.890  -5.487   9.059  0.00  0.00     0.048 A 
ATOM     19 BR   UNL d   1       8.311  -7.221   8.336  0.00  0.00    -0.048 Br
ATOM     20  C   UNL d   1       7.210  -4.553   8.280  0.00  0.00     0.050 A 
ATOM     21 BR   UNL d   1       6.681  -4.977   6.480  0.00  0.00    -0.048 Br
ATOM     22  C   UNL d   1       6.908  -3.296   8.802  0.00  0.00     0.065 A 
ATOM     23 BR   UNL d   1       5.977  -1.959   7.796  0.00  0.00    -0.046 Br
ENDBRANCH   1  13
TORSDOF 2
ENDMDL
MODEL 5
REMARK VINA RESULT:      -5.4      0.030      2.584
REMARK  2 active torsions:
REMARK  status: ('A' for Active; 'I' for Inactive)
REMARK    1  A    between atoms: O_11  and  C_12 
REMARK    2  A    between atoms: O_11  and  C_13 
ROOT
ATOM      1  O   UNL d   1       6.968  -1.726  10.617  0.00  0.00    -0.305 OA
ENDROOT
BRANCH   1   2
ATOM      2  C   UNL d   1       7.263  -2.974  10.100  0.00  0.00     0.113 A 
ATOM      3  C   UNL d   1       7.940  -3.895  10.886  0.00  0.00     0.065 A 
ATOM      4 BR   UNL d   1       8.434  -3.373  12.661  0.00  0.00    -0.046 Br
ATOM      5  C   UNL d   1       8.240  -5.154  10.364  0.00  0.00     0.050 A 
ATOM      6 BR   UNL d   1       9.183  -6.426  11.454  0.00  0.00    -0.048 Br
ATOM      7  C   UNL d   1       7.858  -5.477   9.062  0.00  0.00     0.048 A 
ATOM      8 BR   UNL d   1       8.274  -7.213   8.341  0.00  0.00    -0.048 Br
ATOM      9  C   UNL d   1       7.178  -4.543   8.283  0.00  0.00     0.050 A 
ATOM     10 BR   UNL d   1       6.642  -4.969   6.485  0.00  0.00    -0.048 Br
ATOM     11  C   UNL d   1       6.878  -3.284   8.804  0.00  0.00     0.065 A 
ATOM     12 BR   UNL d   1       5.947  -1.948   7.798  0.00  0.00    -0.046 Br
ENDBRANCH   1   2
BRANCH   1  13
ATOM     13  C   UNL d   1       5.671  -1.304  10.543  0.00  0.00     0.113 A 
ATOM     14  C   UNL d   1       4.645  -2.107  11.040  0.00  0.00     0.065 A 
ATOM     15 BR   UNL d   1       5.138  -3.790  11.812  0.00  0.00    -0.046 Br
ATOM     16  C   UNL d   1       3.321  -1.677  10.962  0.00  0.00     0.050 A 
ATOM     17 BR   UNL d   1       1.923  -2.802  11.652  0.00  0.00    -0.048 Br
ATOM     18  C   UNL d   1       3.022  -0.442  10.386  0.00  0.00     0.048 A 
ATOM     19 BR   UNL d   1       1.194   0.150  10.276  0.00  0.00    -0.048 Br
ATOM     20  C   UNL d   1       4.047   0.361   9.888  0.00  0.00     0.050 A 
ATOM     21 BR   UNL d   1       3.656   2.067   9.091  0.00  0.00    -0.048 Br
ATOM     22  C   UNL d   1       5.371  -0.069   9.966  0.00  0.00     0.065 A 
ATOM     23 BR   UNL d   1       6.834   0.976   9.307  0.00  0.00    -0.046 Br
ENDBRANCH   1  13
TORSDOF 2
ENDMDL
MODEL 6
REMARK VINA RESULT:      -5.4      0.034      6.294
REMARK  2 active torsions:
REMARK  status: ('A' for Active; 'I' for Inactive)
REMARK    1  A    between atoms: O_11  and  C_12 
REMARK    2  A    between atoms: O_11  and  C_13 
ROOT
ATOM      1  O   UNL d   1       6.968  -1.724  10.612  0.00  0.00    -0.305 OA
ENDROOT
BRANCH   1   2
ATOM      2  C   UNL d   1       5.656  -1.297  10.535  0.00  0.00     0.113 A 
ATOM      3  C   UNL d   1       5.371  -0.067   9.962  0.00  0.00     0.065 A 
ATOM      4 BR   UNL d   1       6.834   0.980   9.305  0.00  0.00    -0.046 Br
ATOM      5  C   UNL d   1       4.046   0.365   9.886  0.00  0.00     0.050 A 
ATOM      6 BR   UNL d   1       3.655   2.073   9.094  0.00  0.00    -0.048 Br
ATOM      7  C   UNL d   1       3.021  -0.440  10.384  0.00  0.00     0.048 A 
ATOM      8 BR   UNL d   1       1.194   0.157  10.282  0.00  0.00    -0.048 Br
ATOM      9  C   UNL d   1       3.321  -1.675  10.958  0.00  0.00     0.050 A 
ATOM     10 BR   UNL d   1       1.923  -2.799  11.650  0.00  0.00    -0.048 Br
ATOM     11  C   UNL d   1       4.645  -2.107  11.034  0.00  0.00     0.065 A 
ATOM     12 BR   UNL d   1       5.137  -3.788  11.805  0.00  0.00    -0.046 Br
ENDBRANCH   1   2
BRANCH   1  13
ATOM     13  C   UNL d   1       7.262  -2.956  10.100  0.00  0.00     0.113 A 
ATOM     14  C   UNL d   1       6.880  -3.281   8.798  0.00  0.00     0.065 A 
ATOM     15 BR   UNL d   1       5.948  -1.943   7.793  0.00  0.00    -0.046 Br
ATOM     16  C   UNL d   1       7.178  -4.540   8.278  0.00  0.00     0.050 A 
ATOM     17 BR   UNL d   1       6.640  -4.967   6.482  0.00  0.00    -0.048 Br
ATOM     18  C   UNL d   1       7.857  -5.475   9.058  0.00  0.00     0.048 A 
ATOM     19 BR   UNL d   1       8.265  -7.214   8.340  0.00  0.00    -0.048 Br
ATOM     20  C   UNL d   1       8.238  -5.151  10.360  0.00  0.00     0.050 A 
ATOM     21 BR   UNL d   1       9.176  -6.425  11.453  0.00  0.00    -0.048 Br
ATOM     22  C   UNL d   1       7.941  -3.892  10.881  0.00  0.00     0.065 A 
ATOM     23 BR   UNL d   1       8.431  -3.371  12.657  0.00  0.00    -0.046 Br
ENDBRANCH   1  13
TORSDOF 2
ENDMDL
MODEL 7
REMARK VINA RESULT:      -5.4      0.036      6.041
REMARK  2 active torsions:
REMARK  status: ('A' for Active; 'I' for Inactive)
REMARK    1  A    between atoms: O_11  and  C_12 
REMARK    2  A    between atoms: O_11  and  C_13 
ROOT
ATOM      1  O   UNL d   1       6.969  -1.725  10.613  0.00  0.00    -0.305 OA
ENDROOT
BRANCH   1   2
ATOM      2  C   UNL d   1       5.657  -1.297  10.538  0.00  0.00     0.113 A 
ATOM      3  C   UNL d   1       4.646  -2.106  11.037  0.00  0.00     0.065 A 
ATOM      4 BR   UNL d   1       5.138  -3.788  11.808  0.00  0.00    -0.046 Br
ATOM      5  C   UNL d   1       3.321  -1.675  10.959  0.00  0.00     0.050 A 
ATOM      6 BR   UNL d   1       1.923  -2.800  11.649  0.00  0.00    -0.048 Br
ATOM      7  C   UNL d   1       3.022  -0.440  10.384  0.00  0.00     0.048 A 
ATOM      8 BR   UNL d   1       1.194   0.153  10.274  0.00  0.00    -0.048 Br
ATOM      9  C   UNL d   1       4.048   0.363   9.886  0.00  0.00     0.050 A 
ATOM     10 BR   UNL d   1       3.657   2.069   9.089  0.00  0.00    -0.048 Br
ATOM     11  C   UNL d   1       5.373  -0.067   9.963  0.00  0.00     0.065 A 
ATOM     12 BR   UNL d   1       6.834   0.978   9.304  0.00  0.00    -0.046 Br
ENDBRANCH   1   2
BRANCH   1  13
ATOM     13  C   UNL d   1       7.261  -2.958  10.103  0.00  0.00     0.113 A 
ATOM     14  C   UNL d   1       6.876  -3.284   8.802  0.00  0.00     0.065 A 
ATOM     15 BR   UNL d   1       5.944  -1.947   7.796  0.00  0.00    -0.046 Br
ATOM     16  C   UNL d   1       7.172  -4.544   8.282  0.00  0.00     0.050 A 
ATOM     17 BR   UNL d   1       6.630  -4.973   6.488  0.00  0.00    -0.048 Br
ATOM     18  C   UNL d   1       7.851  -5.479   9.063  0.00  0.00     0.048 A 
ATOM     19 BR   UNL d   1       8.255  -7.219   8.346  0.00  0.00    -0.048 Br
ATOM     20  C   UNL d   1       8.235  -5.154  10.363  0.00  0.00     0.050 A 
ATOM     21 BR   UNL d   1       9.172  -6.428  11.456  0.00  0.00    -0.048 Br
ATOM     22  C   UNL d   1       7.939  -3.894  10.884  0.00  0.00     0.065 A 
ATOM     23 BR   UNL d   1       8.433  -3.372  12.658  0.00  0.00    -0.046 Br
ENDBRANCH   1  13
TORSDOF 2
ENDMDL
MODEL 8
REMARK VINA RESULT:      -5.4      0.017      3.655
REMARK  2 active torsions:
REMARK  status: ('A' for Active; 'I' for Inactive)
REMARK    1  A    between atoms: O_11  and  C_12 
REMARK    2  A    between atoms: O_11  and  C_13 
ROOT
ATOM      1  O   UNL d   1       6.996  -1.737  10.622  0.00  0.00    -0.305 OA
ENDROOT
BRANCH   1   2
ATOM      2  C   UNL d   1       7.297  -2.982  10.102  0.00  0.00     0.113 A 
ATOM      3  C   UNL d   1       6.916  -3.289   8.804  0.00  0.00     0.065 A 
ATOM      4 BR   UNL d   1       5.983  -1.951   7.800  0.00  0.00    -0.046 Br
ATOM      5  C   UNL d   1       7.218  -4.546   8.280  0.00  0.00     0.050 A 
ATOM      6 BR   UNL d   1       6.685  -4.969   6.481  0.00  0.00    -0.048 Br
ATOM      7  C   UNL d   1       7.897  -5.482   9.059  0.00  0.00     0.048 A 
ATOM      8 BR   UNL d   1       8.311  -7.217   8.336  0.00  0.00    -0.048 Br
ATOM      9  C   UNL d   1       8.275  -5.161  10.362  0.00  0.00     0.050 A 
ATOM     10 BR   UNL d   1       9.213  -6.436  11.454  0.00  0.00    -0.048 Br
ATOM     11  C   UNL d   1       7.973  -3.904  10.888  0.00  0.00     0.065 A 
ATOM     12 BR   UNL d   1       8.458  -3.388  12.666  0.00  0.00    -0.046 Br
ENDBRANCH   1   2
BRANCH   1  13
ATOM     13  C   UNL d   1       5.697  -1.319  10.547  0.00  0.00     0.113 A 
ATOM     14  C   UNL d   1       4.674  -2.126  11.044  0.00  0.00     0.065 A 
ATOM     15 BR   UNL d   1       5.172  -3.806  11.817  0.00  0.00    -0.046 Br
ATOM     16  C   UNL d   1       3.348  -1.700  10.963  0.00  0.00     0.050 A 
ATOM     17 BR   UNL d   1       1.953  -2.830  11.652  0.00  0.00    -0.048 Br
ATOM     18  C   UNL d   1       3.045  -0.468  10.386  0.00  0.00     0.048 A 
ATOM     19 BR   UNL d   1       1.215   0.118  10.273  0.00  0.00    -0.048 Br
ATOM     20  C   UNL d   1       4.068   0.339   9.889  0.00  0.00     0.050 A 
ATOM     21 BR   UNL d   1       3.672   2.043   9.090  0.00  0.00    -0.048 Br
ATOM     22  C   UNL d   1       5.394  -0.086   9.969  0.00  0.00     0.065 A 
ATOM     23 BR   UNL d   1       6.853   0.964   9.311  0.00  0.00    -0.046 Br
ENDBRANCH   1  13
TORSDOF 2
ENDMDL
MODEL 9
REMARK VINA RESULT:      -5.1      1.798      6.416
REMARK  2 active torsions:
REMARK  status: ('A' for Active; 'I' for Inactive)
REMARK    1  A    between atoms: O_11  and  C_12 
REMARK    2  A    between atoms: O_11  and  C_13 
ROOT
ATOM      1  O   UNL d   1       4.803  -2.796   8.600  0.00  0.00    -0.305 OA
ENDROOT
BRANCH   1   2
ATOM      2  C   UNL d   1       4.103  -1.679   9.014  0.00  0.00     0.113 A 
ATOM      3  C   UNL d   1       2.736  -1.772   9.228  0.00  0.00     0.065 A 
ATOM      4 BR   UNL d   1       1.891  -3.465   8.932  0.00  0.00    -0.046 Br
ATOM      5  C   UNL d   1       2.028  -0.643   9.644  0.00  0.00     0.050 A 
ATOM      6 BR   UNL d   1       0.132  -0.774   9.937  0.00  0.00    -0.048 Br
ATOM      7  C   UNL d   1       2.696   0.565   9.841  0.00  0.00     0.048 A 
ATOM      8 BR   UNL d   1       1.720   2.123  10.411  0.00  0.00    -0.048 Br
ATOM      9  C   UNL d   1       4.071   0.645   9.622  0.00  0.00     0.050 A 
ATOM     10 BR   UNL d   1       5.011   2.302   9.887  0.00  0.00    -0.048 Br
ATOM     11  C   UNL d   1       4.779  -0.483   9.206  0.00  0.00     0.065 A 
ATOM     12 BR   UNL d   1       6.666  -0.453   8.885  0.00  0.00    -0.046 Br
ENDBRANCH   1   2
BRANCH   1  13
ATOM     13  C   UNL d   1       5.907  -3.152   9.322  0.00  0.00     0.113 A 
ATOM     14  C   UNL d   1       7.139  -3.306   8.686  0.00  0.00     0.065 A 
ATOM     15 BR   UNL d   1       7.199  -3.000   6.796  0.00  0.00    -0.046 Br
ATOM     16  C   UNL d   1       8.264  -3.672   9.423  0.00  0.00     0.050 A 
ATOM     17 BR   UNL d   1       9.951  -3.881   8.524  0.00  0.00    -0.048 Br
ATOM     18  C   UNL d   1       8.159  -3.884  10.797  0.00  0.00     0.048 A 
ATOM     19 BR   UNL d   1       9.713  -4.392  11.814  0.00  0.00    -0.048 Br
ATOM     20  C   UNL d   1       6.928  -3.731  11.434  0.00  0.00     0.050 A 
ATOM     21 BR   UNL d   1       6.762  -4.019  13.328  0.00  0.00    -0.048 Br
ATOM     22  C   UNL d   1       5.802  -3.365  10.697  0.00  0.00     0.065 A 
ATOM     23 BR   UNL d   1       4.078  -3.134  11.498  0.00  0.00    -0.046 Br
ENDBRANCH   1  13
TORSDOF 2
ENDMDL
