MODEL 1
REMARK VINA RESULT:      -5.4      0.000      0.000
REMARK  3 active torsions:
REMARK  status: ('A' for Active; 'I' for Inactive)
REMARK    1  A    between atoms: C_11  and  C_12 
REMARK    2  A    between atoms: C_11  and  C_13 
REMARK    3  A    between atoms: C_12  and  C_14 
ROOT
ATOM      1  C   UNL d   1       0.670  -0.006   9.224  0.00  0.00     0.045 C 
ENDROOT
BRANCH   1   2
ATOM      2  C   UNL d   1       1.573   0.488  10.366  0.00  0.00     0.045 C 
BRANCH   2   3
ATOM      3  C   UNL d   1       2.904  -0.222  10.426  0.00  0.00    -0.020 A 
ATOM      4  C   UNL d   1       4.048   0.417   9.960  0.00  0.00     0.037 A 
ATOM      5 BR   UNL d   1       3.872   2.193   9.256  0.00  0.00    -0.049 Br
ATOM      6  C   UNL d   1       5.277  -0.238  10.014  0.00  0.00     0.047 A 
ATOM      7 BR   UNL d   1       6.854   0.651   9.362  0.00  0.00    -0.048 Br
ATOM      8  C   UNL d   1       5.357  -1.530  10.533  0.00  0.00     0.048 A 
ATOM      9 BR   UNL d   1       7.054  -2.436  10.608  0.00  0.00    -0.048 Br
ATOM     10  C   UNL d   1       4.205  -2.166  10.999  0.00  0.00     0.047 A 
ATOM     11 BR   UNL d   1       4.297  -3.947  11.722  0.00  0.00    -0.048 Br
ATOM     12  C   UNL d   1       2.976  -1.510  10.944  0.00  0.00     0.037 A 
ATOM     13 BR   UNL d   1       1.358  -2.330  11.568  0.00  0.00    -0.049 Br
ENDBRANCH   2   3
ENDBRANCH   1   2
BRANCH   1  14
ATOM     14  C   UNL d   1       0.650   0.906   8.032  0.00  0.00    -0.020 A 
ATOM     15  C   UNL d   1      -0.134   2.059   8.050  0.00  0.00     0.037 A 
ATOM     16 BR   UNL d   1      -1.163   2.424   9.627  0.00  0.00    -0.049 Br
ATOM     17  C   UNL d   1      -0.155   2.906   6.941  0.00  0.00     0.047 A 
ATOM     18 BR   UNL d   1      -1.247   4.490   6.980  0.00  0.00    -0.048 Br
ATOM     19  C   UNL d   1       0.608   2.600   5.815  0.00  0.00     0.048 A 
ATOM     20 BR   UNL d   1       0.579   3.768   4.285  0.00  0.00    -0.048 Br
ATOM     21  C   UNL d   1       1.392   1.446   5.796  0.00  0.00     0.047 A 
ATOM     22 BR   UNL d   1       2.454   1.010   4.253  0.00  0.00    -0.048 Br
ATOM     23  C   UNL d   1       1.413   0.600   6.905  0.00  0.00     0.037 A 
ATOM     24 BR   UNL d   1       2.469  -1.002   6.942  0.00  0.00    -0.049 Br
ENDBRANCH   1  14
TORSDOF 3
ENDMDL
MODEL 2
REMARK VINA RESULT:      -5.3      0.060      2.534
REMARK  3 active torsions:
REMARK  status: ('A' for Active; 'I' for Inactive)
REMARK    1  A    between atoms: C_11  and  C_12 
REMARK    2  A    between atoms: C_11  and  C_13 
REMARK    3  A    between atoms: C_12  and  C_14 
ROOT
ATOM      1  C   UNL d   1       0.720  -0.028   9.189  0.00  0.00     0.045 C 
ENDROOT
BRANCH   1   2
ATOM      2  C   UNL d   1       1.616   0.473  10.334  0.00  0.00     0.045 C 
BRANCH   2   3
ATOM      3  C   UNL d   1       2.948  -0.233  10.403  0.00  0.00    -0.020 A 
ATOM      4  C   UNL d   1       4.091   0.403   9.931  0.00  0.00     0.037 A 
ATOM      5 BR   UNL d   1       3.912   2.170   9.206  0.00  0.00    -0.049 Br
ATOM      6  C   UNL d   1       5.321  -0.250   9.993  0.00  0.00     0.047 A 
ATOM      7 BR   UNL d   1       6.897   0.636   9.332  0.00  0.00    -0.048 Br
ATOM      8  C   UNL d   1       5.404  -1.536  10.527  0.00  0.00     0.048 A 
ATOM      9 BR   UNL d   1       7.102  -2.437  10.613  0.00  0.00    -0.048 Br
ATOM     10  C   UNL d   1       4.253  -2.169  10.999  0.00  0.00     0.047 A 
ATOM     11 BR   UNL d   1       4.348  -3.941  11.743  0.00  0.00    -0.048 Br
ATOM     12  C   UNL d   1       3.022  -1.515  10.936  0.00  0.00     0.037 A 
ATOM     13 BR   UNL d   1       1.406  -2.332  11.568  0.00  0.00    -0.049 Br
ENDBRANCH   2   3
ENDBRANCH   1   2
BRANCH   1  14
ATOM     14  C   UNL d   1       0.667   0.902   8.012  0.00  0.00    -0.020 A 
ATOM     15  C   UNL d   1       1.424   0.628   6.873  0.00  0.00     0.037 A 
ATOM     16 BR   UNL d   1       2.512  -0.951   6.874  0.00  0.00    -0.049 Br
ATOM     17  C   UNL d   1       1.378   1.493   5.779  0.00  0.00     0.047 A 
ATOM     18 BR   UNL d   1       2.433   1.104   4.218  0.00  0.00    -0.048 Br
ATOM     19  C   UNL d   1       0.574   2.631   5.824  0.00  0.00     0.048 A 
ATOM     20 BR   UNL d   1       0.509   3.825   4.315  0.00  0.00    -0.048 Br
ATOM     21  C   UNL d   1      -0.184   2.906   6.963  0.00  0.00     0.047 A 
ATOM     22 BR   UNL d   1      -1.302   4.469   7.041  0.00  0.00    -0.048 Br
ATOM     23  C   UNL d   1      -0.137   2.040   8.057  0.00  0.00     0.037 A 
ATOM     24 BR   UNL d   1      -1.153   2.361   9.652  0.00  0.00    -0.049 Br
ENDBRANCH   1  14
TORSDOF 3
ENDMDL
MODEL 3
REMARK VINA RESULT:      -5.3      0.085      6.831
REMARK  3 active torsions:
REMARK  status: ('A' for Active; 'I' for Inactive)
REMARK    1  A    between atoms: C_11  and  C_12 
REMARK    2  A    between atoms: C_11  and  C_13 
REMARK    3  A    between atoms: C_12  and  C_14 
ROOT
ATOM      1  C   UNL d   1       1.637   0.428  10.382  0.00  0.00     0.045 C 
ENDROOT
BRANCH   1   2
ATOM      2  C   UNL d   1       0.722  -0.067   9.249  0.00  0.00     0.045 C 
BRANCH   2   3
ATOM      3  C   UNL d   1       0.702   0.852   8.052  0.00  0.00    -0.020 A 
ATOM      4  C   UNL d   1      -0.077   2.004   8.081  0.00  0.00     0.037 A 
ATOM      5 BR   UNL d   1      -1.098   2.370   9.664  0.00  0.00    -0.049 Br
ATOM      6  C   UNL d   1      -0.098   2.853   6.975  0.00  0.00     0.047 A 
ATOM      7 BR   UNL d   1      -1.182   4.441   7.021  0.00  0.00    -0.048 Br
ATOM      8  C   UNL d   1       0.659   2.546   5.845  0.00  0.00     0.048 A 
ATOM      9 BR   UNL d   1       0.631   3.717   4.318  0.00  0.00    -0.048 Br
ATOM     10  C   UNL d   1       1.439   1.388   5.822  0.00  0.00     0.047 A 
ATOM     11 BR   UNL d   1       2.493   0.950   4.273  0.00  0.00    -0.048 Br
ATOM     12  C   UNL d   1       1.459   0.539   6.929  0.00  0.00     0.037 A 
ATOM     13 BR   UNL d   1       2.508  -1.066   6.959  0.00  0.00    -0.049 Br
ENDBRANCH   2   3
ENDBRANCH   1   2
BRANCH   1  14
ATOM     14  C   UNL d   1       2.965  -0.270  10.434  0.00  0.00    -0.020 A 
ATOM     15  C   UNL d   1       3.056  -1.558  10.961  0.00  0.00     0.037 A 
ATOM     16 BR   UNL d   1       1.448  -2.384  11.602  0.00  0.00    -0.049 Br
ATOM     17  C   UNL d   1       4.291  -2.206  11.011  0.00  0.00     0.047 A 
ATOM     18 BR   UNL d   1       4.400  -3.980  11.746  0.00  0.00    -0.048 Br
ATOM     19  C   UNL d   1       5.434  -1.565  10.535  0.00  0.00     0.048 A 
ATOM     20 BR   UNL d   1       7.139  -2.459  10.604  0.00  0.00    -0.048 Br
ATOM     21  C   UNL d   1       5.344  -0.276  10.008  0.00  0.00     0.047 A 
ATOM     22 BR   UNL d   1       6.910   0.620   9.342  0.00  0.00    -0.048 Br
ATOM     23  C   UNL d   1       4.109   0.370   9.957  0.00  0.00     0.037 A 
ATOM     24 BR   UNL d   1       3.918   2.142   9.246  0.00  0.00    -0.049 Br
ENDBRANCH   1  14
TORSDOF 3
ENDMDL
MODEL 4
REMARK VINA RESULT:      -5.3      0.167      2.539
REMARK  3 active torsions:
REMARK  status: ('A' for Active; 'I' for Inactive)
REMARK    1  A    between atoms: C_11  and  C_12 
REMARK    2  A    between atoms: C_11  and  C_13 
REMARK    3  A    between atoms: C_12  and  C_14 
ROOT
ATOM      1  C   UNL d   1       0.728  -0.102   9.313  0.00  0.00     0.045 C 
ENDROOT
BRANCH   1   2
ATOM      2  C   UNL d   1       1.643   0.393  10.445  0.00  0.00     0.045 C 
BRANCH   2   3
ATOM      3  C   UNL d   1       2.983  -0.301  10.477  0.00  0.00    -0.020 A 
ATOM      4  C   UNL d   1       3.081  -1.589  10.992  0.00  0.00     0.037 A 
ATOM      5 BR   UNL d   1       1.483  -2.431  11.641  0.00  0.00    -0.049 Br
ATOM      6  C   UNL d   1       4.318  -2.229  11.024  0.00  0.00     0.047 A 
ATOM      7 BR   UNL d   1       4.445  -4.010  11.741  0.00  0.00    -0.048 Br
ATOM      8  C   UNL d   1       5.454  -1.578  10.542  0.00  0.00     0.048 A 
ATOM      9 BR   UNL d   1       7.163  -2.462  10.585  0.00  0.00    -0.048 Br
ATOM     10  C   UNL d   1       5.349  -0.285  10.027  0.00  0.00     0.047 A 
ATOM     11 BR   UNL d   1       6.904   0.627   9.354  0.00  0.00    -0.048 Br
ATOM     12  C   UNL d   1       4.110   0.355   9.996  0.00  0.00     0.037 A 
ATOM     13 BR   UNL d   1       3.902   2.131   9.302  0.00  0.00    -0.049 Br
ENDBRANCH   2   3
ENDBRANCH   1   2
BRANCH   1  14
ATOM     14  C   UNL d   1       0.732   0.785   8.102  0.00  0.00    -0.020 A 
ATOM     15  C   UNL d   1      -0.016   1.963   8.098  0.00  0.00     0.037 A 
ATOM     16 BR   UNL d   1      -1.027   2.392   9.670  0.00  0.00    -0.049 Br
ATOM     17  C   UNL d   1      -0.014   2.787   6.972  0.00  0.00     0.047 A 
ATOM     18 BR   UNL d   1      -1.056   4.404   6.981  0.00  0.00    -0.048 Br
ATOM     19  C   UNL d   1       0.735   2.434   5.850  0.00  0.00     0.048 A 
ATOM     20 BR   UNL d   1       0.738   3.571   4.296  0.00  0.00    -0.048 Br
ATOM     21  C   UNL d   1       1.483   1.256   5.853  0.00  0.00     0.047 A 
ATOM     22 BR   UNL d   1       2.526   0.755   4.317  0.00  0.00    -0.048 Br
ATOM     23  C   UNL d   1       1.481   0.432   6.980  0.00  0.00     0.037 A 
ATOM     24 BR   UNL d   1       2.487  -1.200   7.047  0.00  0.00    -0.049 Br
ENDBRANCH   1  14
TORSDOF 3
ENDMDL
MODEL 5
REMARK VINA RESULT:      -5.3      0.167      6.816
REMARK  3 active torsions:
REMARK  status: ('A' for Active; 'I' for Inactive)
REMARK    1  A    between atoms: C_11  and  C_12 
REMARK    2  A    between atoms: C_11  and  C_13 
REMARK    3  A    between atoms: C_12  and  C_14 
ROOT
ATOM      1  C   UNL d   1       1.654   0.408  10.459  0.00  0.00     0.045 C 
ENDROOT
BRANCH   1   2
ATOM      2  C   UNL d   1       0.715  -0.088   9.347  0.00  0.00     0.045 C 
BRANCH   2   3
ATOM      3  C   UNL d   1       0.713   0.799   8.126  0.00  0.00    -0.020 A 
ATOM      4  C   UNL d   1       1.458   0.436   7.009  0.00  0.00     0.037 A 
ATOM      5 BR   UNL d   1       2.462  -1.197   7.079  0.00  0.00    -0.049 Br
ATOM      6  C   UNL d   1       1.457   1.255   5.881  0.00  0.00     0.047 A 
ATOM      7 BR   UNL d   1       2.495   0.748   4.342  0.00  0.00    -0.048 Br
ATOM      8  C   UNL d   1       0.713   2.434   5.875  0.00  0.00     0.048 A 
ATOM      9 BR   UNL d   1       0.712   3.566   4.319  0.00  0.00    -0.048 Br
ATOM     10  C   UNL d   1      -0.033   2.793   7.000  0.00  0.00     0.047 A 
ATOM     11 BR   UNL d   1      -1.069   4.415   7.008  0.00  0.00    -0.048 Br
ATOM     12  C   UNL d   1      -0.032   1.973   8.128  0.00  0.00     0.037 A 
ATOM     13 BR   UNL d   1      -1.034   2.411   9.703  0.00  0.00    -0.049 Br
ENDBRANCH   2   3
ENDBRANCH   1   2
BRANCH   1  14
ATOM     14  C   UNL d   1       2.982  -0.291  10.485  0.00  0.00    -0.020 A 
ATOM     15  C   UNL d   1       3.079  -1.585  10.996  0.00  0.00     0.037 A 
ATOM     16 BR   UNL d   1       1.479  -2.416  11.650  0.00  0.00    -0.049 Br
ATOM     17  C   UNL d   1       4.313  -2.235  11.022  0.00  0.00     0.047 A 
ATOM     18 BR   UNL d   1       4.430  -4.017  11.736  0.00  0.00    -0.048 Br
ATOM     19  C   UNL d   1       5.451  -1.590  10.537  0.00  0.00     0.048 A 
ATOM     20 BR   UNL d   1       7.155  -2.486  10.573  0.00  0.00    -0.048 Br
ATOM     21  C   UNL d   1       5.355  -0.295  10.026  0.00  0.00     0.047 A 
ATOM     22 BR   UNL d   1       6.913   0.607   9.349  0.00  0.00    -0.048 Br
ATOM     23  C   UNL d   1       4.120   0.353  10.000  0.00  0.00     0.037 A 
ATOM     24 BR   UNL d   1       3.921   2.133   9.311  0.00  0.00    -0.049 Br
ENDBRANCH   1  14
TORSDOF 3
ENDMDL
MODEL 6
REMARK VINA RESULT:      -5.3      0.174      3.587
REMARK  3 active torsions:
REMARK  status: ('A' for Active; 'I' for Inactive)
REMARK    1  A    between atoms: C_11  and  C_12 
REMARK    2  A    between atoms: C_11  and  C_13 
REMARK    3  A    between atoms: C_12  and  C_14 
ROOT
ATOM      1  C   UNL d   1       0.666  -0.121   9.343  0.00  0.00     0.045 C 
ENDROOT
BRANCH   1   2
ATOM      2  C   UNL d   1       1.586   0.374  10.471  0.00  0.00     0.045 C 
BRANCH   2   3
ATOM      3  C   UNL d   1       2.927  -0.317  10.496  0.00  0.00    -0.020 A 
ATOM      4  C   UNL d   1       3.028  -1.611  10.994  0.00  0.00     0.037 A 
ATOM      5 BR   UNL d   1       1.432  -2.464  11.632  0.00  0.00    -0.049 Br
ATOM      6  C   UNL d   1       4.267  -2.249  11.018  0.00  0.00     0.047 A 
ATOM      7 BR   UNL d   1       4.398  -4.038  11.714  0.00  0.00    -0.048 Br
ATOM      8  C   UNL d   1       5.401  -1.589  10.544  0.00  0.00     0.048 A 
ATOM      9 BR   UNL d   1       7.112  -2.470  10.577  0.00  0.00    -0.048 Br
ATOM     10  C   UNL d   1       5.294  -0.290  10.046  0.00  0.00     0.047 A 
ATOM     11 BR   UNL d   1       6.847   0.634   9.385  0.00  0.00    -0.048 Br
ATOM     12  C   UNL d   1       4.053   0.347  10.022  0.00  0.00     0.037 A 
ATOM     13 BR   UNL d   1       3.841   2.131   9.351  0.00  0.00    -0.049 Br
ENDBRANCH   2   3
ENDBRANCH   1   2
BRANCH   1  14
ATOM     14  C   UNL d   1       0.674   0.759   8.127  0.00  0.00    -0.020 A 
ATOM     15  C   UNL d   1       1.431   0.401   7.012  0.00  0.00     0.037 A 
ATOM     16 BR   UNL d   1       2.440  -1.228   7.096  0.00  0.00    -0.049 Br
ATOM     17  C   UNL d   1       1.441   1.219   5.883  0.00  0.00     0.047 A 
ATOM     18 BR   UNL d   1       2.496   0.713   4.356  0.00  0.00    -0.048 Br
ATOM     19  C   UNL d   1       0.693   2.396   5.867  0.00  0.00     0.048 A 
ATOM     20 BR   UNL d   1       0.706   3.526   4.308  0.00  0.00    -0.048 Br
ATOM     21  C   UNL d   1      -0.065   2.755   6.983  0.00  0.00     0.047 A 
ATOM     22 BR   UNL d   1      -1.106   4.373   6.978  0.00  0.00    -0.048 Br
ATOM     23  C   UNL d   1      -0.074   1.936   8.112  0.00  0.00     0.037 A 
ATOM     24 BR   UNL d   1      -1.094   2.374   9.677  0.00  0.00    -0.049 Br
ENDBRANCH   1  14
TORSDOF 3
ENDMDL
MODEL 7
REMARK VINA RESULT:      -5.3      0.082      6.805
REMARK  3 active torsions:
REMARK  status: ('A' for Active; 'I' for Inactive)
REMARK    1  A    between atoms: C_11  and  C_12 
REMARK    2  A    between atoms: C_11  and  C_13 
REMARK    3  A    between atoms: C_12  and  C_14 
ROOT
ATOM      1  C   UNL d   1       1.530   0.442  10.442  0.00  0.00     0.045 C 
ENDROOT
BRANCH   1   2
ATOM      2  C   UNL d   1       0.615  -0.038   9.304  0.00  0.00     0.045 C 
BRANCH   2   3
ATOM      3  C   UNL d   1       0.617   0.882   8.107  0.00  0.00    -0.020 A 
ATOM      4  C   UNL d   1      -0.152   2.041   8.126  0.00  0.00     0.037 A 
ATOM      5 BR   UNL d   1      -1.187   2.416   9.697  0.00  0.00    -0.049 Br
ATOM      6  C   UNL d   1      -0.152   2.889   7.020  0.00  0.00     0.047 A 
ATOM      7 BR   UNL d   1      -1.222   4.488   7.054  0.00  0.00    -0.048 Br
ATOM      8  C   UNL d   1       0.616   2.575   5.899  0.00  0.00     0.048 A 
ATOM      9 BR   UNL d   1       0.616   3.746   4.372  0.00  0.00    -0.048 Br
ATOM     10  C   UNL d   1       1.385   1.410   5.886  0.00  0.00     0.047 A 
ATOM     11 BR   UNL d   1       2.453   0.963   4.349  0.00  0.00    -0.048 Br
ATOM     12  C   UNL d   1       1.384   0.562   6.992  0.00  0.00     0.037 A 
ATOM     13 BR   UNL d   1       2.419  -1.053   7.034  0.00  0.00    -0.049 Br
ENDBRANCH   2   3
ENDBRANCH   1   2
BRANCH   1  14
ATOM     14  C   UNL d   1       2.860  -0.253  10.483  0.00  0.00    -0.020 A 
ATOM     15  C   UNL d   1       4.002   0.400  10.022  0.00  0.00     0.037 A 
ATOM     16 BR   UNL d   1       3.809   2.185   9.348  0.00  0.00    -0.049 Br
ATOM     17  C   UNL d   1       5.238  -0.247  10.057  0.00  0.00     0.047 A 
ATOM     18 BR   UNL d   1       6.804   0.667   9.412  0.00  0.00    -0.048 Br
ATOM     19  C   UNL d   1       5.331  -1.546  10.555  0.00  0.00     0.048 A 
ATOM     20 BR   UNL d   1       7.037  -2.439  10.604  0.00  0.00    -0.048 Br
ATOM     21  C   UNL d   1       4.188  -2.200  11.016  0.00  0.00     0.047 A 
ATOM     22 BR   UNL d   1       4.299  -3.991  11.709  0.00  0.00    -0.048 Br
ATOM     23  C   UNL d   1       2.953  -1.553  10.980  0.00  0.00     0.037 A 
ATOM     24 BR   UNL d   1       1.345  -2.397  11.598  0.00  0.00    -0.049 Br
ENDBRANCH   1  14
TORSDOF 3
ENDMDL
MODEL 8
REMARK VINA RESULT:      -5.3      0.179      6.807
REMARK  3 active torsions:
REMARK  status: ('A' for Active; 'I' for Inactive)
REMARK    1  A    between atoms: C_11  and  C_12 
REMARK    2  A    between atoms: C_11  and  C_13 
REMARK    3  A    between atoms: C_12  and  C_14 
ROOT
ATOM      1  C   UNL d   1       1.646   0.393  10.466  0.00  0.00     0.045 C 
ENDROOT
BRANCH   1   2
ATOM      2  C   UNL d   1       0.707  -0.104   9.355  0.00  0.00     0.045 C 
BRANCH   2   3
ATOM      3  C   UNL d   1       0.706   0.780   8.132  0.00  0.00    -0.020 A 
ATOM      4  C   UNL d   1       1.456   0.416   7.018  0.00  0.00     0.037 A 
ATOM      5 BR   UNL d   1       2.464  -1.214   7.095  0.00  0.00    -0.049 Br
ATOM      6  C   UNL d   1       1.457   1.233   5.888  0.00  0.00     0.047 A 
ATOM      7 BR   UNL d   1       2.500   0.725   4.353  0.00  0.00    -0.048 Br
ATOM      8  C   UNL d   1       0.709   2.411   5.878  0.00  0.00     0.048 A 
ATOM      9 BR   UNL d   1       0.710   3.539   4.319  0.00  0.00    -0.048 Br
ATOM     10  C   UNL d   1      -0.040   2.770   6.999  0.00  0.00     0.047 A 
ATOM     11 BR   UNL d   1      -1.080   4.389   7.001  0.00  0.00    -0.048 Br
ATOM     12  C   UNL d   1      -0.040   1.952   8.129  0.00  0.00     0.037 A 
ATOM     13 BR   UNL d   1      -1.048   2.392   9.700  0.00  0.00    -0.049 Br
ENDBRANCH   2   3
ENDBRANCH   1   2
BRANCH   1  14
ATOM     14  C   UNL d   1       2.975  -0.305  10.493  0.00  0.00    -0.020 A 
ATOM     15  C   UNL d   1       4.112   0.341  10.010  0.00  0.00     0.037 A 
ATOM     16 BR   UNL d   1       3.913   2.122   9.325  0.00  0.00    -0.049 Br
ATOM     17  C   UNL d   1       5.346  -0.308  10.032  0.00  0.00     0.047 A 
ATOM     18 BR   UNL d   1       6.904   0.596   9.356  0.00  0.00    -0.048 Br
ATOM     19  C   UNL d   1       5.444  -1.604  10.538  0.00  0.00     0.048 A 
ATOM     20 BR   UNL d   1       7.148  -2.501  10.570  0.00  0.00    -0.048 Br
ATOM     21  C   UNL d   1       4.306  -2.251  11.021  0.00  0.00     0.047 A 
ATOM     22 BR   UNL d   1       4.422  -4.037  11.727  0.00  0.00    -0.048 Br
ATOM     23  C   UNL d   1       3.072  -1.601  10.999  0.00  0.00     0.037 A 
ATOM     24 BR   UNL d   1       1.471  -2.436  11.647  0.00  0.00    -0.049 Br
ENDBRANCH   1  14
TORSDOF 3
ENDMDL
MODEL 9
REMARK VINA RESULT:      -5.2      3.149      7.642
REMARK  3 active torsions:
REMARK  status: ('A' for Active; 'I' for Inactive)
REMARK    1  A    between atoms: C_11  and  C_12 
REMARK    2  A    between atoms: C_11  and  C_13 
REMARK    3  A    between atoms: C_12  and  C_14 
ROOT
ATOM      1  C   UNL d   1       1.332   0.690   6.148  0.00  0.00     0.045 C 
ENDROOT
BRANCH   1   2
ATOM      2  C   UNL d   1       2.133   1.812   5.466  0.00  0.00     0.045 C 
BRANCH   2   3
ATOM      3  C   UNL d   1       1.690   2.088   4.050  0.00  0.00    -0.020 A 
ATOM      4  C   UNL d   1       2.046   1.210   3.032  0.00  0.00     0.037 A 
ATOM      5 BR   UNL d   1       3.096  -0.330   3.489  0.00  0.00    -0.049 Br
ATOM      6  C   UNL d   1       1.639   1.465   1.724  0.00  0.00     0.047 A 
ATOM      7 BR   UNL d   1       2.141   0.247   0.322  0.00  0.00    -0.048 Br
ATOM      8  C   UNL d   1       0.877   2.598   1.439  0.00  0.00     0.048 A 
ATOM      9 BR   UNL d   1       0.314   2.951  -0.368  0.00  0.00    -0.048 Br
ATOM     10  C   UNL d   1       0.523   3.476   2.464  0.00  0.00     0.047 A 
ATOM     11 BR   UNL d   1      -0.531   5.041   2.090  0.00  0.00    -0.048 Br
ATOM     12  C   UNL d   1       0.931   3.219   3.773  0.00  0.00     0.037 A 
ATOM     13 BR   UNL d   1       0.477   4.387   5.225  0.00  0.00    -0.049 Br
ENDBRANCH   2   3
ENDBRANCH   1   2
BRANCH   1  14
ATOM     14  C   UNL d   1       0.629   1.124   7.401  0.00  0.00    -0.020 A 
ATOM     15  C   UNL d   1       1.342   1.248   8.593  0.00  0.00     0.037 A 
ATOM     16 BR   UNL d   1       3.218   0.850   8.565  0.00  0.00    -0.049 Br
ATOM     17  C   UNL d   1       0.689   1.650   9.759  0.00  0.00     0.047 A 
ATOM     18 BR   UNL d   1       1.687   1.811  11.396  0.00  0.00    -0.048 Br
ATOM     19  C   UNL d   1      -0.677   1.928   9.732  0.00  0.00     0.048 A 
ATOM     20 BR   UNL d   1      -1.579   2.483  11.340  0.00  0.00    -0.048 Br
ATOM     21  C   UNL d   1      -1.391   1.804   8.540  0.00  0.00     0.047 A 
ATOM     22 BR   UNL d   1      -3.275   2.187   8.483  0.00  0.00    -0.048 Br
ATOM     23  C   UNL d   1      -0.737   1.402   7.374  0.00  0.00     0.037 A 
ATOM     24 BR   UNL d   1      -1.662   1.211   5.704  0.00  0.00    -0.049 Br
ENDBRANCH   1  14
TORSDOF 3
ENDMDL
