MODEL 1
REMARK VINA RESULT:      -7.2      0.000      0.000
REMARK  6 active torsions:
REMARK  status: ('A' for Active; 'I' for Inactive)
REMARK    1  A    between atoms: N_8  and  C_18 
REMARK    2  A    between atoms: N_9  and  N_11 
REMARK       I    between atoms: N_9  and  C_22 
REMARK    3  A    between atoms: N_10  and  C_25 
REMARK       I    between atoms: N_11  and  C_27 
REMARK    4  A    between atoms: N_12  and  C_26 
REMARK       I    between atoms: N_12  and  C_27 
REMARK    5  A    between atoms: C_19  and  C_22 
REMARK    6  A    between atoms: C_28  and  C_33 
ROOT
ATOM      1  O   UNL d   1       2.461   2.186   7.621  0.00  0.00    -0.267 OA
ATOM      2  N   UNL d   1       2.482   2.495   9.923  0.00  0.00    -0.263 N 
ATOM      3  C   UNL d   1       3.038   2.163   8.704  0.00  0.00     0.260 C 
ATOM      4  H   UNL d   1       2.981   2.470  10.805  0.00  0.00     0.190 HD
ENDROOT
BRANCH   2   5
ATOM      5  N   UNL d   1       1.169   2.893   9.966  0.00  0.00    -0.248 N 
ATOM      6  C   UNL d   1       0.273   2.198  10.779  0.00  0.00     0.339 C 
ATOM      7  O   UNL d   1       0.599   1.235  11.469  0.00  0.00    -0.245 OA
ATOM      8  N   UNL d   1      -1.003   2.759  10.681  0.00  0.00    -0.308 N 
ATOM      9  H   UNL d   1      -1.100   3.559  10.061  0.00  0.00     0.170 HD
ATOM     10  H   UNL d   1       0.908   3.691   9.399  0.00  0.00     0.192 HD
BRANCH   8  11
ATOM     11  C   UNL d   1      -2.184   2.351  11.342  0.00  0.00     0.037 A 
ATOM     12  C   UNL d   1      -2.446   2.789  12.640  0.00  0.00     0.045 A 
ATOM     13  C   UNL d   1      -3.612   2.386  13.291  0.00  0.00     0.050 A 
ATOM     14  C   UNL d   1      -4.517   1.545  12.644  0.00  0.00     0.016 A 
ATOM     15  C   UNL d   1      -4.257   1.108  11.345  0.00  0.00     0.003 A 
ATOM     16  C   UNL d   1      -3.091   1.511  10.694  0.00  0.00     0.029 A 
BRANCH  13  17
ATOM     17  C   UNL d   1      -3.890   2.854  14.679  0.00  0.00     0.417 C 
ATOM     18  F   UNL d   1      -3.991   1.840  15.589  0.00  0.00    -0.166 F 
ATOM     19  F   UNL d   1      -5.057   3.555  14.797  0.00  0.00    -0.166 F 
ATOM     20  F   UNL d   1      -2.917   3.682  15.160  0.00  0.00    -0.166 F 
ENDBRANCH  13  17
ENDBRANCH   8  11
ENDBRANCH   2   5
BRANCH   3  21
ATOM     21  C   UNL d   1       4.460   1.760   8.848  0.00  0.00     0.078 C 
ATOM     22  C   UNL d   1       4.778   0.483   9.105  0.00  0.00    -0.071 C 
ATOM     23  C   UNL d   1       6.195   0.007   9.263  0.00  0.00     0.054 C 
ATOM     24  C   UNL d   1       3.749  -0.598   9.283  0.00  0.00     0.054 C 
ATOM     25  C   UNL d   1       6.373  -0.715  10.600  0.00  0.00     0.127 C 
ATOM     26  N   UNL d   1       5.345  -1.757  10.772  0.00  0.00    -0.380 N 
ATOM     27  C   UNL d   1       3.948  -1.324  10.616  0.00  0.00     0.127 C 
BRANCH  26  28
ATOM     28  C   UNL d   1       5.645  -2.822  11.628  0.00  0.00     0.030 A 
ATOM     29  C   UNL d   1       4.837  -3.960  11.634  0.00  0.00     0.032 A 
ATOM     30  C   UNL d   1       5.136  -5.023  12.485  0.00  0.00     0.038 A 
ATOM     31  C   UNL d   1       6.242  -4.948  13.333  0.00  0.00     0.103 A 
ATOM     32  C   UNL d   1       7.048  -3.811  13.328  0.00  0.00     0.038 A 
ATOM     33  C   UNL d   1       6.750  -2.748  12.475  0.00  0.00     0.032 A 
BRANCH  31  34
ATOM     34  N   UNL d   1       6.546  -6.029  14.202  0.00  0.00    -0.116 N 
ATOM     35  O   UNL d   1       7.022  -7.084  13.717  0.00  0.00    -0.532 OA
ATOM     36  O   UNL d   1       6.328  -5.902  15.431  0.00  0.00    -0.532 OA
ENDBRANCH  31  34
ENDBRANCH  26  28
ENDBRANCH   3  21
TORSDOF 6
ENDMDL
MODEL 2
REMARK VINA RESULT:      -7.2     16.986     18.439
REMARK  6 active torsions:
REMARK  status: ('A' for Active; 'I' for Inactive)
REMARK    1  A    between atoms: N_8  and  C_18 
REMARK    2  A    between atoms: N_9  and  N_11 
REMARK       I    between atoms: N_9  and  C_22 
REMARK    3  A    between atoms: N_10  and  C_25 
REMARK       I    between atoms: N_11  and  C_27 
REMARK    4  A    between atoms: N_12  and  C_26 
REMARK       I    between atoms: N_12  and  C_27 
REMARK    5  A    between atoms: C_19  and  C_22 
REMARK    6  A    between atoms: C_28  and  C_33 
ROOT
ATOM      1  O   UNL d   1       5.592   7.642  -1.074  0.00  0.00    -0.267 OA
ATOM      2  N   UNL d   1       5.136   9.144  -2.786  0.00  0.00    -0.263 N 
ATOM      3  C   UNL d   1       5.246   7.887  -2.226  0.00  0.00     0.260 C 
ATOM      4  H   UNL d   1       4.845   9.320  -3.742  0.00  0.00     0.190 HD
ENDROOT
BRANCH   2   5
ATOM      5  N   UNL d   1       5.431  10.241  -2.016  0.00  0.00    -0.248 N 
ATOM      6  C   UNL d   1       4.405  10.879  -1.319  0.00  0.00     0.339 C 
ATOM      7  O   UNL d   1       3.234  10.507  -1.355  0.00  0.00    -0.245 OA
ATOM      8  N   UNL d   1       4.912  11.965  -0.600  0.00  0.00    -0.308 N 
ATOM      9  H   UNL d   1       5.912  12.135  -0.680  0.00  0.00     0.170 HD
ATOM     10  H   UNL d   1       6.399  10.539  -1.986  0.00  0.00     0.192 HD
BRANCH   8  11
ATOM     11  C   UNL d   1       4.205  12.864   0.230  0.00  0.00     0.037 A 
ATOM     12  C   UNL d   1       4.811  13.382   1.374  0.00  0.00     0.045 A 
ATOM     13  C   UNL d   1       4.112  14.270   2.193  0.00  0.00     0.050 A 
ATOM     14  C   UNL d   1       2.808  14.639   1.867  0.00  0.00     0.016 A 
ATOM     15  C   UNL d   1       2.201  14.122   0.723  0.00  0.00     0.003 A 
ATOM     16  C   UNL d   1       2.900  13.234  -0.096  0.00  0.00     0.029 A 
BRANCH  13  17
ATOM     17  C   UNL d   1       4.761  14.823   3.417  0.00  0.00     0.417 C 
ATOM     18  F   UNL d   1       5.659  13.971   3.994  0.00  0.00    -0.166 F 
ATOM     19  F   UNL d   1       3.877  15.134   4.411  0.00  0.00    -0.166 F 
ATOM     20  F   UNL d   1       5.453  15.973   3.171  0.00  0.00    -0.166 F 
ENDBRANCH  13  17
ENDBRANCH   8  11
ENDBRANCH   2   5
BRANCH   3  21
ATOM     21  C   UNL d   1       4.888   6.825  -3.200  0.00  0.00     0.078 C 
ATOM     22  C   UNL d   1       5.815   5.952  -3.620  0.00  0.00    -0.071 C 
ATOM     23  C   UNL d   1       5.521   4.854  -4.604  0.00  0.00     0.054 C 
ATOM     24  C   UNL d   1       7.247   5.995  -3.166  0.00  0.00     0.054 C 
ATOM     25  C   UNL d   1       6.480   4.929  -5.794  0.00  0.00     0.127 C 
ATOM     26  N   UNL d   1       7.878   4.994  -5.335  0.00  0.00    -0.380 N 
ATOM     27  C   UNL d   1       8.196   6.053  -4.365  0.00  0.00     0.127 C 
BRANCH  26  28
ATOM     28  C   UNL d   1       8.868   4.550  -6.219  0.00  0.00     0.030 A 
ATOM     29  C   UNL d   1       8.770   4.841  -7.580  0.00  0.00     0.032 A 
ATOM     30  C   UNL d   1       9.756   4.399  -8.461  0.00  0.00     0.038 A 
ATOM     31  C   UNL d   1      10.841   3.664  -7.981  0.00  0.00     0.103 A 
ATOM     32  C   UNL d   1      10.939   3.371  -6.621  0.00  0.00     0.038 A 
ATOM     33  C   UNL d   1       9.952   3.815  -5.740  0.00  0.00     0.032 A 
BRANCH  31  34
ATOM     34  N   UNL d   1      11.845   3.212  -8.877  0.00  0.00    -0.116 N 
ATOM     35  O   UNL d   1      11.860   3.660 -10.049  0.00  0.00    -0.532 OA
ATOM     36  O   UNL d   1      12.689   2.375  -8.474  0.00  0.00    -0.532 OA
ENDBRANCH  31  34
ENDBRANCH  26  28
ENDBRANCH   3  21
TORSDOF 6
ENDMDL
MODEL 3
REMARK VINA RESULT:      -7.1     17.397     18.520
REMARK  6 active torsions:
REMARK  status: ('A' for Active; 'I' for Inactive)
REMARK    1  A    between atoms: N_8  and  C_18 
REMARK    2  A    between atoms: N_9  and  N_11 
REMARK       I    between atoms: N_9  and  C_22 
REMARK    3  A    between atoms: N_10  and  C_25 
REMARK       I    between atoms: N_11  and  C_27 
REMARK    4  A    between atoms: N_12  and  C_26 
REMARK       I    between atoms: N_12  and  C_27 
REMARK    5  A    between atoms: C_19  and  C_22 
REMARK    6  A    between atoms: C_28  and  C_33 
ROOT
ATOM      1  O   UNL d   1       1.485  11.996   0.740  0.00  0.00    -0.267 OA
ATOM      2  N   UNL d   1       3.739  12.309   0.277  0.00  0.00    -0.263 N 
ATOM      3  C   UNL d   1       2.433  11.996  -0.040  0.00  0.00     0.260 C 
ATOM      4  H   UNL d   1       4.506  12.304  -0.388  0.00  0.00     0.190 HD
ENDROOT
BRANCH   2   5
ATOM      5  N   UNL d   1       4.044  12.657   1.569  0.00  0.00    -0.248 N 
ATOM      6  C   UNL d   1       4.518  13.942   1.834  0.00  0.00     0.339 C 
ATOM      7  O   UNL d   1       4.680  14.793   0.962  0.00  0.00    -0.245 OA
ATOM      8  N   UNL d   1       4.764  14.093   3.201  0.00  0.00    -0.308 N 
ATOM      9  H   UNL d   1       4.574  13.285   3.789  0.00  0.00     0.170 HD
ATOM     10  H   UNL d   1       3.902  11.953   2.284  0.00  0.00     0.192 HD
BRANCH   8  11
ATOM     11  C   UNL d   1       5.249  15.237   3.876  0.00  0.00     0.037 A 
ATOM     12  C   UNL d   1       6.447  15.828   3.477  0.00  0.00     0.045 A 
ATOM     13  C   UNL d   1       6.924  16.957   4.143  0.00  0.00     0.050 A 
ATOM     14  C   UNL d   1       6.203  17.495   5.209  0.00  0.00     0.016 A 
ATOM     15  C   UNL d   1       5.003  16.905   5.608  0.00  0.00     0.003 A 
ATOM     16  C   UNL d   1       4.527  15.776   4.941  0.00  0.00     0.029 A 
BRANCH  13  17
ATOM     17  C   UNL d   1       8.206  17.588   3.717  0.00  0.00     0.417 C 
ATOM     18  F   UNL d   1       9.315  16.977   4.230  0.00  0.00    -0.166 F 
ATOM     19  F   UNL d   1       8.320  18.899   4.085  0.00  0.00    -0.166 F 
ATOM     20  F   UNL d   1       8.374  17.574   2.362  0.00  0.00    -0.166 F 
ENDBRANCH  13  17
ENDBRANCH   8  11
ENDBRANCH   2   5
BRANCH   3  21
ATOM     21  C   UNL d   1       2.291  11.646  -1.476  0.00  0.00     0.078 C 
ATOM     22  C   UNL d   1       2.703  10.452  -1.925  0.00  0.00    -0.071 C 
ATOM     23  C   UNL d   1       2.589  10.034  -3.364  0.00  0.00     0.054 C 
ATOM     24  C   UNL d   1       3.339   9.418  -1.039  0.00  0.00     0.054 C 
ATOM     25  C   UNL d   1       3.952   9.600  -3.907  0.00  0.00     0.127 C 
ATOM     26  N   UNL d   1       4.576   8.604  -3.018  0.00  0.00    -0.380 N 
ATOM     27  C   UNL d   1       4.694   8.980  -1.601  0.00  0.00     0.127 C 
BRANCH  26  28
ATOM     28  C   UNL d   1       5.518   7.738  -3.582  0.00  0.00     0.030 A 
ATOM     29  C   UNL d   1       5.305   7.207  -4.854  0.00  0.00     0.032 A 
ATOM     30  C   UNL d   1       6.244   6.344  -5.417  0.00  0.00     0.038 A 
ATOM     31  C   UNL d   1       7.398   6.010  -4.707  0.00  0.00     0.103 A 
ATOM     32  C   UNL d   1       7.612   6.540  -3.435  0.00  0.00     0.038 A 
ATOM     33  C   UNL d   1       6.672   7.404  -2.873  0.00  0.00     0.032 A 
BRANCH  31  34
ATOM     34  N   UNL d   1       8.355   5.131  -5.279  0.00  0.00    -0.116 N 
ATOM     35  O   UNL d   1       8.095   4.578  -6.375  0.00  0.00    -0.532 OA
ATOM     36  O   UNL d   1       9.435   4.928  -4.672  0.00  0.00    -0.532 OA
ENDBRANCH  31  34
ENDBRANCH  26  28
ENDBRANCH   3  21
TORSDOF 6
ENDMDL
MODEL 4
REMARK VINA RESULT:      -6.9      6.924     11.751
REMARK  6 active torsions:
REMARK  status: ('A' for Active; 'I' for Inactive)
REMARK    1  A    between atoms: N_8  and  C_18 
REMARK    2  A    between atoms: N_9  and  N_11 
REMARK       I    between atoms: N_9  and  C_22 
REMARK    3  A    between atoms: N_10  and  C_25 
REMARK       I    between atoms: N_11  and  C_27 
REMARK    4  A    between atoms: N_12  and  C_26 
REMARK       I    between atoms: N_12  and  C_27 
REMARK    5  A    between atoms: C_19  and  C_22 
REMARK    6  A    between atoms: C_28  and  C_33 
ROOT
ATOM      1  O   UNL d   1       1.849   0.447  10.524  0.00  0.00    -0.267 OA
ATOM      2  N   UNL d   1       3.742   0.235   9.196  0.00  0.00    -0.263 N 
ATOM      3  C   UNL d   1       2.578   0.844   9.621  0.00  0.00     0.260 C 
ATOM      4  H   UNL d   1       4.330   0.585   8.446  0.00  0.00     0.190 HD
ENDROOT
BRANCH   2   5
ATOM      5  N   UNL d   1       4.152  -0.918   9.816  0.00  0.00    -0.248 N 
ATOM      6  C   UNL d   1       5.494  -1.062  10.168  0.00  0.00     0.339 C 
ATOM      7  O   UNL d   1       6.343  -0.200   9.951  0.00  0.00    -0.245 OA
ATOM      8  N   UNL d   1       5.701  -2.298  10.786  0.00  0.00    -0.308 N 
ATOM      9  H   UNL d   1       4.885  -2.896  10.889  0.00  0.00     0.170 HD
ATOM     10  H   UNL d   1       3.446  -1.622   9.998  0.00  0.00     0.192 HD
BRANCH   8  11
ATOM     11  C   UNL d   1       6.913  -2.826  11.289  0.00  0.00     0.037 A 
ATOM     12  C   UNL d   1       7.799  -3.479  10.432  0.00  0.00     0.045 A 
ATOM     13  C   UNL d   1       8.994  -3.999  10.929  0.00  0.00     0.050 A 
ATOM     14  C   UNL d   1       9.302  -3.867  12.282  0.00  0.00     0.016 A 
ATOM     15  C   UNL d   1       8.417  -3.214  13.140  0.00  0.00     0.003 A 
ATOM     16  C   UNL d   1       7.222  -2.694  12.643  0.00  0.00     0.029 A 
BRANCH  13  17
ATOM     17  C   UNL d   1       9.941  -4.698  10.013  0.00  0.00     0.417 C 
ATOM     18  F   UNL d   1      10.506  -5.816  10.557  0.00  0.00    -0.166 F 
ATOM     19  F   UNL d   1      10.995  -3.922   9.620  0.00  0.00    -0.166 F 
ATOM     20  F   UNL d   1       9.344  -5.114   8.858  0.00  0.00    -0.166 F 
ENDBRANCH  13  17
ENDBRANCH   8  11
ENDBRANCH   2   5
BRANCH   3  21
ATOM     21  C   UNL d   1       2.293   2.074   8.840  0.00  0.00     0.078 C 
ATOM     22  C   UNL d   1       1.688   1.992   7.646  0.00  0.00    -0.071 C 
ATOM     23  C   UNL d   1       1.370   3.196   6.804  0.00  0.00     0.054 C 
ATOM     24  C   UNL d   1       1.286   0.688   7.019  0.00  0.00     0.054 C 
ATOM     25  C   UNL d   1       1.968   3.046   5.404  0.00  0.00     0.127 C 
ATOM     26  N   UNL d   1       1.586   1.753   4.809  0.00  0.00    -0.380 N 
ATOM     27  C   UNL d   1       1.877   0.556   5.612  0.00  0.00     0.127 C 
BRANCH  26  28
ATOM     28  C   UNL d   1       1.583   1.662   3.413  0.00  0.00     0.030 A 
ATOM     29  C   UNL d   1       2.279   0.631   2.779  0.00  0.00     0.032 A 
ATOM     30  C   UNL d   1       2.275   0.539   1.388  0.00  0.00     0.038 A 
ATOM     31  C   UNL d   1       1.576   1.479   0.629  0.00  0.00     0.103 A 
ATOM     32  C   UNL d   1       0.882   2.509   1.262  0.00  0.00     0.038 A 
ATOM     33  C   UNL d   1       0.884   2.600   2.654  0.00  0.00     0.032 A 
BRANCH  31  34
ATOM     34  N   UNL d   1       1.574   1.387  -0.788  0.00  0.00    -0.116 N 
ATOM     35  O   UNL d   1       1.528   0.254  -1.324  0.00  0.00    -0.532 OA
ATOM     36  O   UNL d   1       1.619   2.442  -1.466  0.00  0.00    -0.532 OA
ENDBRANCH  31  34
ENDBRANCH  26  28
ENDBRANCH   3  21
TORSDOF 6
ENDMDL
MODEL 5
REMARK VINA RESULT:      -6.8      6.256     10.669
REMARK  6 active torsions:
REMARK  status: ('A' for Active; 'I' for Inactive)
REMARK    1  A    between atoms: N_8  and  C_18 
REMARK    2  A    between atoms: N_9  and  N_11 
REMARK       I    between atoms: N_9  and  C_22 
REMARK    3  A    between atoms: N_10  and  C_25 
REMARK       I    between atoms: N_11  and  C_27 
REMARK    4  A    between atoms: N_12  and  C_26 
REMARK       I    between atoms: N_12  and  C_27 
REMARK    5  A    between atoms: C_19  and  C_22 
REMARK    6  A    between atoms: C_28  and  C_33 
ROOT
ATOM      1  O   UNL d   1       2.798   1.235  10.112  0.00  0.00    -0.267 OA
ATOM      2  N   UNL d   1       4.735   1.686   8.913  0.00  0.00    -0.263 N 
ATOM      3  C   UNL d   1       3.378   1.748   9.161  0.00  0.00     0.260 C 
ATOM      4  H   UNL d   1       5.192   2.121   8.118  0.00  0.00     0.190 HD
ENDROOT
BRANCH   2   5
ATOM      5  N   UNL d   1       5.538   0.998   9.788  0.00  0.00    -0.248 N 
ATOM      6  C   UNL d   1       5.654  -0.386   9.660  0.00  0.00     0.339 C 
ATOM      7  O   UNL d   1       5.069  -1.034   8.795  0.00  0.00    -0.245 OA
ATOM      8  N   UNL d   1       6.514  -0.891  10.640  0.00  0.00    -0.308 N 
ATOM      9  H   UNL d   1       6.918  -0.213  11.282  0.00  0.00     0.170 HD
ATOM     10  H   UNL d   1       6.022   1.538  10.495  0.00  0.00     0.192 HD
BRANCH   8  11
ATOM     11  C   UNL d   1       6.895  -2.236  10.853  0.00  0.00     0.037 A 
ATOM     12  C   UNL d   1       6.504  -2.896  12.017  0.00  0.00     0.045 A 
ATOM     13  C   UNL d   1       6.881  -4.223  12.226  0.00  0.00     0.050 A 
ATOM     14  C   UNL d   1       7.649  -4.889  11.271  0.00  0.00     0.016 A 
ATOM     15  C   UNL d   1       8.039  -4.229  10.106  0.00  0.00     0.003 A 
ATOM     16  C   UNL d   1       7.663  -2.902   9.897  0.00  0.00     0.029 A 
BRANCH  13  17
ATOM     17  C   UNL d   1       6.463  -4.929  13.472  0.00  0.00     0.417 C 
ATOM     18  F   UNL d   1       5.160  -5.341  13.457  0.00  0.00    -0.166 F 
ATOM     19  F   UNL d   1       6.582  -4.166  14.599  0.00  0.00    -0.166 F 
ATOM     20  F   UNL d   1       7.200  -6.052  13.712  0.00  0.00    -0.166 F 
ENDBRANCH  13  17
ENDBRANCH   8  11
ENDBRANCH   2   5
BRANCH   3  21
ATOM     21  C   UNL d   1       2.671   2.531   8.116  0.00  0.00     0.078 C 
ATOM     22  C   UNL d   1       2.206   1.923   7.015  0.00  0.00    -0.071 C 
ATOM     23  C   UNL d   1       1.482   2.654   5.919  0.00  0.00     0.054 C 
ATOM     24  C   UNL d   1       2.379   0.453   6.755  0.00  0.00     0.054 C 
ATOM     25  C   UNL d   1       2.157   2.405   4.569  0.00  0.00     0.127 C 
ATOM     26  N   UNL d   1       2.343   0.962   4.336  0.00  0.00    -0.380 N 
ATOM     27  C   UNL d   1       3.041   0.216   5.395  0.00  0.00     0.127 C 
BRANCH  26  28
ATOM     28  C   UNL d   1       2.444   0.531   3.009  0.00  0.00     0.030 A 
ATOM     29  C   UNL d   1       1.818   1.253   1.992  0.00  0.00     0.032 A 
ATOM     30  C   UNL d   1       1.919   0.825   0.669  0.00  0.00     0.038 A 
ATOM     31  C   UNL d   1       2.645  -0.327   0.362  0.00  0.00     0.103 A 
ATOM     32  C   UNL d   1       3.269  -1.049   1.378  0.00  0.00     0.038 A 
ATOM     33  C   UNL d   1       3.169  -0.620   2.702  0.00  0.00     0.032 A 
BRANCH  31  34
ATOM     34  N   UNL d   1       2.746  -0.765  -0.985  0.00  0.00    -0.116 N 
ATOM     35  O   UNL d   1       2.990  -1.974  -1.215  0.00  0.00    -0.532 OA
ATOM     36  O   UNL d   1       2.590   0.070  -1.909  0.00  0.00    -0.532 OA
ENDBRANCH  31  34
ENDBRANCH  26  28
ENDBRANCH   3  21
TORSDOF 6
ENDMDL
MODEL 6
REMARK VINA RESULT:      -6.8     16.114     18.692
REMARK  6 active torsions:
REMARK  status: ('A' for Active; 'I' for Inactive)
REMARK    1  A    between atoms: N_8  and  C_18 
REMARK    2  A    between atoms: N_9  and  N_11 
REMARK       I    between atoms: N_9  and  C_22 
REMARK    3  A    between atoms: N_10  and  C_25 
REMARK       I    between atoms: N_11  and  C_27 
REMARK    4  A    between atoms: N_12  and  C_26 
REMARK       I    between atoms: N_12  and  C_27 
REMARK    5  A    between atoms: C_19  and  C_22 
REMARK    6  A    between atoms: C_28  and  C_33 
ROOT
ATOM      1  O   UNL d   1      11.197  -7.578  -0.996  0.00  0.00    -0.267 OA
ATOM      2  N   UNL d   1      12.225  -7.574   1.086  0.00  0.00    -0.263 N 
ATOM      3  C   UNL d   1      11.934  -8.092  -0.160  0.00  0.00     0.260 C 
ATOM      4  H   UNL d   1      12.840  -8.018   1.760  0.00  0.00     0.190 HD
ENDROOT
BRANCH   2   5
ATOM      5  N   UNL d   1      11.660  -6.380   1.457  0.00  0.00    -0.248 N 
ATOM      6  C   UNL d   1      11.516  -6.086   2.813  0.00  0.00     0.339 C 
ATOM      7  O   UNL d   1      11.874  -6.849   3.708  0.00  0.00    -0.245 OA
ATOM      8  N   UNL d   1      10.924  -4.831   2.975  0.00  0.00    -0.308 N 
ATOM      9  H   UNL d   1      10.689  -4.326   2.124  0.00  0.00     0.170 HD
ATOM     10  H   UNL d   1      11.372  -5.753   0.714  0.00  0.00     0.192 HD
BRANCH   8  11
ATOM     11  C   UNL d   1      10.608  -4.169   4.184  0.00  0.00     0.037 A 
ATOM     12  C   UNL d   1       9.403  -4.437   4.832  0.00  0.00     0.045 A 
ATOM     13  C   UNL d   1       9.092  -3.783   6.025  0.00  0.00     0.050 A 
ATOM     14  C   UNL d   1       9.986  -2.861   6.568  0.00  0.00     0.016 A 
ATOM     15  C   UNL d   1      11.192  -2.594   5.921  0.00  0.00     0.003 A 
ATOM     16  C   UNL d   1      11.503  -3.247   4.729  0.00  0.00     0.029 A 
BRANCH  13  17
ATOM     17  C   UNL d   1       7.802  -4.069   6.717  0.00  0.00     0.417 C 
ATOM     18  F   UNL d   1       7.625  -5.389   7.022  0.00  0.00    -0.166 F 
ATOM     19  F   UNL d   1       6.701  -3.722   5.988  0.00  0.00    -0.166 F 
ATOM     20  F   UNL d   1       7.682  -3.401   7.901  0.00  0.00    -0.166 F 
ENDBRANCH  13  17
ENDBRANCH   8  11
ENDBRANCH   2   5
BRANCH   3  21
ATOM     21  C   UNL d   1      12.632  -9.382  -0.388  0.00  0.00     0.078 C 
ATOM     22  C   UNL d   1      13.849  -9.402  -0.949  0.00  0.00    -0.071 C 
ATOM     23  C   UNL d   1      14.611 -10.672  -1.209  0.00  0.00     0.054 C 
ATOM     24  C   UNL d   1      14.567  -8.160  -1.396  0.00  0.00     0.054 C 
ATOM     25  C   UNL d   1      15.018 -10.764  -2.681  0.00  0.00     0.127 C 
ATOM     26  N   UNL d   1      15.699  -9.531  -3.112  0.00  0.00    -0.380 N 
ATOM     27  C   UNL d   1      14.982  -8.270  -2.865  0.00  0.00     0.127 C 
BRANCH  26  28
ATOM     28  C   UNL d   1      16.573  -9.625  -4.201  0.00  0.00     0.030 A 
ATOM     29  C   UNL d   1      16.065  -9.670  -5.500  0.00  0.00     0.032 A 
ATOM     30  C   UNL d   1      16.935  -9.762  -6.586  0.00  0.00     0.038 A 
ATOM     31  C   UNL d   1      18.314  -9.811  -6.373  0.00  0.00     0.103 A 
ATOM     32  C   UNL d   1      18.821  -9.767  -5.075  0.00  0.00     0.038 A 
ATOM     33  C   UNL d   1      17.950  -9.673  -3.989  0.00  0.00     0.032 A 
BRANCH  31  34
ATOM     34  N   UNL d   1      19.200  -9.907  -7.478  0.00  0.00    -0.116 N 
ATOM     35  O   UNL d   1      18.910 -10.678  -8.425  0.00  0.00    -0.532 OA
ATOM     36  O   UNL d   1      20.250  -9.219  -7.478  0.00  0.00    -0.532 OA
ENDBRANCH  31  34
ENDBRANCH  26  28
ENDBRANCH   3  21
TORSDOF 6
ENDMDL
MODEL 7
REMARK VINA RESULT:      -6.8      5.907     10.911
REMARK  6 active torsions:
REMARK  status: ('A' for Active; 'I' for Inactive)
REMARK    1  A    between atoms: N_8  and  C_18 
REMARK    2  A    between atoms: N_9  and  N_11 
REMARK       I    between atoms: N_9  and  C_22 
REMARK    3  A    between atoms: N_10  and  C_25 
REMARK       I    between atoms: N_11  and  C_27 
REMARK    4  A    between atoms: N_12  and  C_26 
REMARK       I    between atoms: N_12  and  C_27 
REMARK    5  A    between atoms: C_19  and  C_22 
REMARK    6  A    between atoms: C_28  and  C_33 
ROOT
ATOM      1  O   UNL d   1       2.261   1.565  11.228  0.00  0.00    -0.267 OA
ATOM      2  N   UNL d   1       3.709   2.151   9.510  0.00  0.00    -0.263 N 
ATOM      3  C   UNL d   1       2.491   2.123  10.160  0.00  0.00     0.260 C 
ATOM      4  H   UNL d   1       3.875   2.622   8.627  0.00  0.00     0.190 HD
ENDROOT
BRANCH   2   5
ATOM      5  N   UNL d   1       4.780   1.509  10.079  0.00  0.00    -0.248 N 
ATOM      6  C   UNL d   1       4.961   0.146   9.845  0.00  0.00     0.339 C 
ATOM      7  O   UNL d   1       4.203  -0.523   9.145  0.00  0.00    -0.245 OA
ATOM      8  N   UNL d   1       6.102  -0.311  10.510  0.00  0.00    -0.308 N 
ATOM      9  H   UNL d   1       6.620   0.378  11.048  0.00  0.00     0.170 HD
ATOM     10  H   UNL d   1       5.405   2.067  10.650  0.00  0.00     0.192 HD
BRANCH   8  11
ATOM     11  C   UNL d   1       6.630  -1.623  10.528  0.00  0.00     0.037 A 
ATOM     12  C   UNL d   1       6.616  -2.365  11.708  0.00  0.00     0.045 A 
ATOM     13  C   UNL d   1       7.138  -3.659  11.725  0.00  0.00     0.050 A 
ATOM     14  C   UNL d   1       7.673  -4.210  10.561  0.00  0.00     0.016 A 
ATOM     15  C   UNL d   1       7.686  -3.468   9.380  0.00  0.00     0.003 A 
ATOM     16  C   UNL d   1       7.165  -2.175   9.363  0.00  0.00     0.029 A 
BRANCH  13  17
ATOM     17  C   UNL d   1       7.124  -4.452  12.988  0.00  0.00     0.417 C 
ATOM     18  F   UNL d   1       7.810  -5.630  12.903  0.00  0.00    -0.166 F 
ATOM     19  F   UNL d   1       5.869  -4.801  13.400  0.00  0.00    -0.166 F 
ATOM     20  F   UNL d   1       7.678  -3.779  14.037  0.00  0.00    -0.166 F 
ENDBRANCH  13  17
ENDBRANCH   8  11
ENDBRANCH   2   5
BRANCH   3  21
ATOM     21  C   UNL d   1       1.454   2.867   9.401  0.00  0.00     0.078 C 
ATOM     22  C   UNL d   1       1.047   2.426   8.202  0.00  0.00    -0.071 C 
ATOM     23  C   UNL d   1       0.002   3.130   7.382  0.00  0.00     0.054 C 
ATOM     24  C   UNL d   1       1.609   1.196   7.547  0.00  0.00     0.054 C 
ATOM     25  C   UNL d   1       0.537   3.441   5.983  0.00  0.00     0.127 C 
ATOM     26  N   UNL d   1       1.107   2.233   5.361  0.00  0.00    -0.380 N 
ATOM     27  C   UNL d   1       2.127   1.517   6.142  0.00  0.00     0.127 C 
BRANCH  26  28
ATOM     28  C   UNL d   1       1.154   2.189   3.963  0.00  0.00     0.030 A 
ATOM     29  C   UNL d   1       1.889   1.193   3.320  0.00  0.00     0.032 A 
ATOM     30  C   UNL d   1       1.936   1.148   1.927  0.00  0.00     0.038 A 
ATOM     31  C   UNL d   1       1.247   2.102   1.176  0.00  0.00     0.103 A 
ATOM     32  C   UNL d   1       0.513   3.098   1.818  0.00  0.00     0.038 A 
ATOM     33  C   UNL d   1       0.465   3.142   3.211  0.00  0.00     0.032 A 
BRANCH  31  34
ATOM     34  N   UNL d   1       1.295   2.058  -0.242  0.00  0.00    -0.116 N 
ATOM     35  O   UNL d   1       1.664   1.000  -0.806  0.00  0.00    -0.532 OA
ATOM     36  O   UNL d   1       0.968   3.080  -0.894  0.00  0.00    -0.532 OA
ENDBRANCH  31  34
ENDBRANCH  26  28
ENDBRANCH   3  21
TORSDOF 6
ENDMDL
MODEL 8
REMARK VINA RESULT:      -6.7     16.878     18.026
REMARK  6 active torsions:
REMARK  status: ('A' for Active; 'I' for Inactive)
REMARK    1  A    between atoms: N_8  and  C_18 
REMARK    2  A    between atoms: N_9  and  N_11 
REMARK       I    between atoms: N_9  and  C_22 
REMARK    3  A    between atoms: N_10  and  C_25 
REMARK       I    between atoms: N_11  and  C_27 
REMARK    4  A    between atoms: N_12  and  C_26 
REMARK       I    between atoms: N_12  and  C_27 
REMARK    5  A    between atoms: C_19  and  C_22 
REMARK    6  A    between atoms: C_28  and  C_33 
ROOT
ATOM      1  O   UNL d   1       1.232  11.723   0.700  0.00  0.00    -0.267 OA
ATOM      2  N   UNL d   1       3.418  12.339   0.213  0.00  0.00    -0.263 N 
ATOM      3  C   UNL d   1       2.163  11.850  -0.090  0.00  0.00     0.260 C 
ATOM      4  H   UNL d   1       4.171  12.436  -0.459  0.00  0.00     0.190 HD
ENDROOT
BRANCH   2   5
ATOM      5  N   UNL d   1       3.684  12.729   1.502  0.00  0.00    -0.248 N 
ATOM      6  C   UNL d   1       4.368  13.924   1.724  0.00  0.00     0.339 C 
ATOM      7  O   UNL d   1       4.750  14.660   0.816  0.00  0.00    -0.245 OA
ATOM      8  N   UNL d   1       4.535  14.138   3.095  0.00  0.00    -0.308 N 
ATOM      9  H   UNL d   1       4.155  13.426   3.714  0.00  0.00     0.170 HD
ATOM     10  H   UNL d   1       3.361  12.122   2.246  0.00  0.00     0.192 HD
BRANCH   8  11
ATOM     11  C   UNL d   1       5.172  15.226   3.734  0.00  0.00     0.037 A 
ATOM     12  C   UNL d   1       4.453  16.042   4.606  0.00  0.00     0.045 A 
ATOM     13  C   UNL d   1       5.083  17.116   5.236  0.00  0.00     0.050 A 
ATOM     14  C   UNL d   1       6.432  17.373   4.994  0.00  0.00     0.016 A 
ATOM     15  C   UNL d   1       7.152  16.557   4.122  0.00  0.00     0.003 A 
ATOM     16  C   UNL d   1       6.522  15.483   3.492  0.00  0.00     0.029 A 
BRANCH  13  17
ATOM     17  C   UNL d   1       4.313  17.989   6.168  0.00  0.00     0.417 C 
ATOM     18  F   UNL d   1       3.644  19.003   5.543  0.00  0.00    -0.166 F 
ATOM     19  F   UNL d   1       5.089  18.602   7.110  0.00  0.00    -0.166 F 
ATOM     20  F   UNL d   1       3.364  17.302   6.869  0.00  0.00    -0.166 F 
ENDBRANCH  13  17
ENDBRANCH   8  11
ENDBRANCH   2   5
BRANCH   3  21
ATOM     21  C   UNL d   1       2.056  11.480  -1.524  0.00  0.00     0.078 C 
ATOM     22  C   UNL d   1       2.501  10.289  -1.950  0.00  0.00    -0.071 C 
ATOM     23  C   UNL d   1       2.424   9.852  -3.386  0.00  0.00     0.054 C 
ATOM     24  C   UNL d   1       3.141   9.280  -1.040  0.00  0.00     0.054 C 
ATOM     25  C   UNL d   1       3.806   9.440  -3.897  0.00  0.00     0.127 C 
ATOM     26  N   UNL d   1       4.432   8.468  -2.984  0.00  0.00    -0.380 N 
ATOM     27  C   UNL d   1       4.515   8.864  -1.570  0.00  0.00     0.127 C 
BRANCH  26  28
ATOM     28  C   UNL d   1       5.403   7.615  -3.519  0.00  0.00     0.030 A 
ATOM     29  C   UNL d   1       5.283   7.156  -4.831  0.00  0.00     0.032 A 
ATOM     30  C   UNL d   1       6.251   6.307  -5.365  0.00  0.00     0.038 A 
ATOM     31  C   UNL d   1       7.340   5.913  -4.586  0.00  0.00     0.103 A 
ATOM     32  C   UNL d   1       7.460   6.371  -3.275  0.00  0.00     0.038 A 
ATOM     33  C   UNL d   1       6.492   7.222  -2.741  0.00  0.00     0.032 A 
BRANCH  31  34
ATOM     34  N   UNL d   1       8.325   5.047  -5.129  0.00  0.00    -0.116 N 
ATOM     35  O   UNL d   1       7.976   4.171  -5.956  0.00  0.00    -0.532 OA
ATOM     36  O   UNL d   1       9.519   5.180  -4.766  0.00  0.00    -0.532 OA
ENDBRANCH  31  34
ENDBRANCH  26  28
ENDBRANCH   3  21
TORSDOF 6
ENDMDL
MODEL 9
REMARK VINA RESULT:      -6.7      2.479      3.738
REMARK  6 active torsions:
REMARK  status: ('A' for Active; 'I' for Inactive)
REMARK    1  A    between atoms: N_8  and  C_18 
REMARK    2  A    between atoms: N_9  and  N_11 
REMARK       I    between atoms: N_9  and  C_22 
REMARK    3  A    between atoms: N_10  and  C_25 
REMARK       I    between atoms: N_11  and  C_27 
REMARK    4  A    between atoms: N_12  and  C_26 
REMARK       I    between atoms: N_12  and  C_27 
REMARK    5  A    between atoms: C_19  and  C_22 
REMARK    6  A    between atoms: C_28  and  C_33 
ROOT
ATOM      1  O   UNL d   1      -1.727   2.326   8.956  0.00  0.00    -0.267 OA
ATOM      2  N   UNL d   1      -0.811   2.294  11.090  0.00  0.00    -0.263 N 
ATOM      3  C   UNL d   1      -0.775   2.453   9.719  0.00  0.00     0.260 C 
ATOM      4  H   UNL d   1      -0.009   2.408  11.701  0.00  0.00     0.190 HD
ENDROOT
BRANCH   2   5
ATOM      5  N   UNL d   1      -2.002   1.964  11.688  0.00  0.00    -0.248 N 
ATOM      6  C   UNL d   1      -2.613   2.882  12.542  0.00  0.00     0.339 C 
ATOM      7  O   UNL d   1      -2.138   3.988  12.792  0.00  0.00    -0.245 OA
ATOM      8  N   UNL d   1      -3.807   2.357  13.042  0.00  0.00    -0.308 N 
ATOM      9  H   UNL d   1      -4.056   1.421  12.731  0.00  0.00     0.170 HD
ATOM     10  H   UNL d   1      -2.391   1.053  11.473  0.00  0.00     0.192 HD
BRANCH   8  11
ATOM     11  C   UNL d   1      -4.720   2.967  13.933  0.00  0.00     0.037 A 
ATOM     12  C   UNL d   1      -4.360   3.179  15.263  0.00  0.00     0.045 A 
ATOM     13  C   UNL d   1      -5.261   3.781  16.141  0.00  0.00     0.050 A 
ATOM     14  C   UNL d   1      -6.522   4.171  15.689  0.00  0.00     0.016 A 
ATOM     15  C   UNL d   1      -6.881   3.960  14.358  0.00  0.00     0.003 A 
ATOM     16  C   UNL d   1      -5.980   3.358  13.480  0.00  0.00     0.029 A 
BRANCH  13  17
ATOM     17  C   UNL d   1      -4.877   4.007  17.565  0.00  0.00     0.417 C 
ATOM     18  F   UNL d   1      -5.405   3.089  18.428  0.00  0.00    -0.166 F 
ATOM     19  F   UNL d   1      -5.272   5.221  18.052  0.00  0.00    -0.166 F 
ATOM     20  F   UNL d   1      -3.527   3.958  17.759  0.00  0.00    -0.166 F 
ENDBRANCH  13  17
ENDBRANCH   8  11
ENDBRANCH   2   5
BRANCH   3  21
ATOM     21  C   UNL d   1       0.589   2.809   9.251  0.00  0.00     0.078 C 
ATOM     22  C   UNL d   1       1.506   1.852   9.051  0.00  0.00    -0.071 C 
ATOM     23  C   UNL d   1       2.903   2.141   8.578  0.00  0.00     0.054 C 
ATOM     24  C   UNL d   1       1.238   0.395   9.300  0.00  0.00     0.054 C 
ATOM     25  C   UNL d   1       3.931   1.544   9.541  0.00  0.00     0.127 C 
ATOM     26  N   UNL d   1       3.643   0.122   9.795  0.00  0.00    -0.380 N 
ATOM     27  C   UNL d   1       2.282  -0.195  10.252  0.00  0.00     0.127 C 
BRANCH  26  28
ATOM     28  C   UNL d   1       4.711  -0.690  10.195  0.00  0.00     0.030 A 
ATOM     29  C   UNL d   1       6.016  -0.353   9.836  0.00  0.00     0.032 A 
ATOM     30  C   UNL d   1       7.080  -1.161  10.235  0.00  0.00     0.038 A 
ATOM     31  C   UNL d   1       6.839  -2.308  10.993  0.00  0.00     0.103 A 
ATOM     32  C   UNL d   1       5.535  -2.645  11.351  0.00  0.00     0.038 A 
ATOM     33  C   UNL d   1       4.471  -1.836  10.953  0.00  0.00     0.032 A 
BRANCH  31  34
ATOM     34  N   UNL d   1       7.922  -3.132  11.398  0.00  0.00    -0.116 N 
ATOM     35  O   UNL d   1       8.231  -4.121  10.692  0.00  0.00    -0.532 OA
ATOM     36  O   UNL d   1       8.541  -2.848  12.453  0.00  0.00    -0.532 OA
ENDBRANCH  31  34
ENDBRANCH  26  28
ENDBRANCH   3  21
TORSDOF 6
ENDMDL
