MODEL 1
REMARK VINA RESULT:      -6.5      0.000      0.000
REMARK  2 active torsions:
REMARK  status: ('A' for Active; 'I' for Inactive)
REMARK    1  A    between atoms: O_1  and  C_7 
REMARK    2  A    between atoms: O_2  and  C_20 
ROOT
ATOM      1  C   UNL d   1      -0.894   1.140  10.506  0.00  0.00    -0.014 C 
ATOM      2  C   UNL d   1      -0.048   0.028  11.158  0.00  0.00     0.001 C 
ATOM      3  C   UNL d   1       1.339  -0.087  10.527  0.00  0.00    -0.001 C 
ATOM      4  C   UNL d   1       2.097   1.258  10.740  0.00  0.00     0.023 C 
ATOM      5  C   UNL d   1      -2.204   0.952  11.296  0.00  0.00     0.126 C 
ATOM      6  C   UNL d   1      -0.184   2.479  10.742  0.00  0.00     0.013 C 
ATOM      7  C   UNL d   1      -0.979  -1.182  11.143  0.00  0.00     0.008 C 
ATOM      8  C   UNL d   1       1.265   2.461  10.219  0.00  0.00     0.010 C 
ATOM      9  C   UNL d   1      -2.378  -0.578  11.370  0.00  0.00     0.033 C 
ATOM     10  C   UNL d   1       2.166  -1.225  11.128  0.00  0.00     0.010 C 
ATOM     11  C   UNL d   1      -1.149   0.957   8.988  0.00  0.00     0.018 C 
ATOM     12  C   UNL d   1       3.525   1.179  10.205  0.00  0.00    -0.047 A 
ATOM     13  C   UNL d   1       3.476  -1.376  10.360  0.00  0.00     0.039 C 
ATOM     14  C   UNL d   1       4.172  -0.068  10.072  0.00  0.00    -0.049 A 
ATOM     15  C   UNL d   1       4.258   2.343   9.916  0.00  0.00     0.011 A 
ATOM     16  C   UNL d   1       5.500  -0.123   9.611  0.00  0.00     0.044 A 
ATOM     17  C   UNL d   1       5.579   2.276   9.467  0.00  0.00     0.037 A 
ATOM     18  C   UNL d   1       6.199   1.043   9.310  0.00  0.00     0.066 A 
ENDROOT
BRANCH   5  19
ATOM     19  O   UNL d   1      -3.314   1.577  10.683  0.00  0.00    -0.395 OA
ATOM     20  H   UNL d   1      -3.041   2.477  10.432  0.00  0.00     0.210 HD
ENDBRANCH   5  19
BRANCH  18  21
ATOM     21  O   UNL d   1       7.484   0.974   8.870  0.00  0.00    -0.361 OA
ATOM     22  H   UNL d   1       7.481   0.770   7.918  0.00  0.00     0.217 HD
ENDBRANCH  18  21
TORSDOF 2
ENDMDL
MODEL 2
REMARK VINA RESULT:      -6.5      1.104      6.668
REMARK  2 active torsions:
REMARK  status: ('A' for Active; 'I' for Inactive)
REMARK    1  A    between atoms: O_1  and  C_7 
REMARK    2  A    between atoms: O_2  and  C_20 
ROOT
ATOM      1  C   UNL d   1       4.882  -0.580   9.718  0.00  0.00    -0.014 C 
ATOM      2  C   UNL d   1       4.579   0.875  10.125  0.00  0.00     0.001 C 
ATOM      3  C   UNL d   1       3.101   1.226   9.953  0.00  0.00    -0.001 C 
ATOM      4  C   UNL d   1       2.258   0.298  10.880  0.00  0.00     0.023 C 
ATOM      5  C   UNL d   1       6.408  -0.587   9.937  0.00  0.00     0.126 C 
ATOM      6  C   UNL d   1       4.093  -1.511  10.647  0.00  0.00     0.013 C 
ATOM      7  C   UNL d   1       5.632   1.683   9.370  0.00  0.00     0.008 C 
ATOM      8  C   UNL d   1       2.585  -1.198  10.625  0.00  0.00     0.010 C 
ATOM      9  C   UNL d   1       6.872   0.769   9.370  0.00  0.00     0.033 C 
ATOM     10  C   UNL d   1       2.799   2.685  10.301  0.00  0.00     0.010 C 
ATOM     11  C   UNL d   1       4.549  -0.926   8.244  0.00  0.00     0.018 C 
ATOM     12  C   UNL d   1       0.774   0.656  10.817  0.00  0.00    -0.047 A 
ATOM     13  C   UNL d   1       1.343   3.004   9.973  0.00  0.00     0.039 C 
ATOM     14  C   UNL d   1       0.365   1.949  10.428  0.00  0.00    -0.049 A 
ATOM     15  C   UNL d   1      -0.211  -0.258  11.229  0.00  0.00     0.011 A 
ATOM     16  C   UNL d   1      -1.004   2.275  10.409  0.00  0.00     0.044 A 
ATOM     17  C   UNL d   1      -1.566   0.081  11.214  0.00  0.00     0.037 A 
ATOM     18  C   UNL d   1      -1.963   1.346  10.800  0.00  0.00     0.066 A 
ENDROOT
BRANCH   5  19
ATOM     19  O   UNL d   1       7.054  -1.670   9.299  0.00  0.00    -0.395 OA
ATOM     20  H   UNL d   1       6.547  -2.475   9.505  0.00  0.00     0.210 HD
ENDBRANCH   5  19
BRANCH  18  21
ATOM     21  O   UNL d   1      -3.282   1.677  10.781  0.00  0.00    -0.361 OA
ATOM     22  H   UNL d   1      -3.471   2.261  11.537  0.00  0.00     0.217 HD
ENDBRANCH  18  21
TORSDOF 2
ENDMDL
MODEL 3
REMARK VINA RESULT:      -6.1      2.715      4.586
REMARK  2 active torsions:
REMARK  status: ('A' for Active; 'I' for Inactive)
REMARK    1  A    between atoms: O_1  and  C_7 
REMARK    2  A    between atoms: O_2  and  C_20 
ROOT
ATOM      1  C   UNL d   1       1.823   0.471  10.079  0.00  0.00    -0.014 C 
ATOM      2  C   UNL d   1       3.127   0.412   9.259  0.00  0.00     0.001 C 
ATOM      3  C   UNL d   1       4.280  -0.201  10.054  0.00  0.00    -0.001 C 
ATOM      4  C   UNL d   1       3.902  -1.665  10.432  0.00  0.00     0.023 C 
ATOM      5  C   UNL d   1       0.915   1.176   9.052  0.00  0.00     0.126 C 
ATOM      6  C   UNL d   1       1.411  -0.965  10.426  0.00  0.00     0.013 C 
ATOM      7  C   UNL d   1       3.267   1.829   8.710  0.00  0.00     0.008 C 
ATOM      8  C   UNL d   1       2.533  -1.721  11.163  0.00  0.00     0.010 C 
ATOM      9  C   UNL d   1       1.815   2.272   8.449  0.00  0.00     0.033 C 
ATOM     10  C   UNL d   1       5.593  -0.213   9.269  0.00  0.00     0.010 C 
ATOM     11  C   UNL d   1       1.911   1.307  11.382  0.00  0.00     0.018 C 
ATOM     12  C   UNL d   1       5.050  -2.363  11.157  0.00  0.00    -0.047 A 
ATOM     13  C   UNL d   1       6.727  -0.703  10.165  0.00  0.00     0.039 C 
ATOM     14  C   UNL d   1       6.380  -1.921  10.985  0.00  0.00    -0.049 A 
ATOM     15  C   UNL d   1       4.827  -3.511  11.937  0.00  0.00     0.011 A 
ATOM     16  C   UNL d   1       7.432  -2.596  11.632  0.00  0.00     0.044 A 
ATOM     17  C   UNL d   1       5.881  -4.177  12.567  0.00  0.00     0.037 A 
ATOM     18  C   UNL d   1       7.183  -3.717  12.418  0.00  0.00     0.066 A 
ENDROOT
BRANCH   5  19
ATOM     19  O   UNL d   1      -0.257   1.717   9.628  0.00  0.00    -0.395 OA
ATOM     20  H   UNL d   1      -0.729   2.202   8.929  0.00  0.00     0.210 HD
ENDBRANCH   5  19
BRANCH  18  21
ATOM     21  O   UNL d   1       8.211  -4.361  13.032  0.00  0.00    -0.361 OA
ATOM     22  H   UNL d   1       7.847  -5.042  13.626  0.00  0.00     0.217 HD
ENDBRANCH  18  21
TORSDOF 2
ENDMDL
MODEL 4
REMARK VINA RESULT:      -6.0      3.433      6.852
REMARK  2 active torsions:
REMARK  status: ('A' for Active; 'I' for Inactive)
REMARK    1  A    between atoms: O_1  and  C_7 
REMARK    2  A    between atoms: O_2  and  C_20 
ROOT
ATOM      1  C   UNL d   1       6.722  -3.563  11.816  0.00  0.00    -0.014 C 
ATOM      2  C   UNL d   1       5.250  -3.869  11.476  0.00  0.00     0.001 C 
ATOM      3  C   UNL d   1       4.374  -2.618  11.527  0.00  0.00    -0.001 C 
ATOM      4  C   UNL d   1       4.895  -1.601  10.466  0.00  0.00     0.023 C 
ATOM      5  C   UNL d   1       7.296  -4.992  11.745  0.00  0.00     0.126 C 
ATOM      6  C   UNL d   1       7.266  -2.595  10.758  0.00  0.00     0.013 C 
ATOM      7  C   UNL d   1       4.915  -5.054  12.378  0.00  0.00     0.008 C 
ATOM      8  C   UNL d   1       6.410  -1.318  10.656  0.00  0.00     0.010 C 
ATOM      9  C   UNL d   1       6.227  -5.858  12.438  0.00  0.00     0.033 C 
ATOM     10  C   UNL d   1       2.901  -2.920  11.246  0.00  0.00     0.010 C 
ATOM     11  C   UNL d   1       6.951  -2.961  13.226  0.00  0.00     0.018 C 
ATOM     12  C   UNL d   1       4.008  -0.359  10.409  0.00  0.00    -0.047 A 
ATOM     13  C   UNL d   1       2.065  -1.659  11.453  0.00  0.00     0.039 C 
ATOM     14  C   UNL d   1       2.665  -0.418  10.839  0.00  0.00    -0.049 A 
ATOM     15  C   UNL d   1       4.474   0.842   9.846  0.00  0.00     0.011 A 
ATOM     16  C   UNL d   1       1.849   0.725  10.747  0.00  0.00     0.044 A 
ATOM     17  C   UNL d   1       3.652   1.966   9.753  0.00  0.00     0.037 A 
ATOM     18  C   UNL d   1       2.340   1.910  10.208  0.00  0.00     0.066 A 
ENDROOT
BRANCH   5  19
ATOM     19  O   UNL d   1       8.558  -5.113  12.371  0.00  0.00    -0.395 OA
ATOM     20  H   UNL d   1       9.232  -4.836  11.727  0.00  0.00     0.210 HD
ENDBRANCH   5  19
BRANCH  18  21
ATOM     21  O   UNL d   1       1.538   3.004  10.121  0.00  0.00    -0.361 OA
ATOM     22  H   UNL d   1       2.062   3.797  10.332  0.00  0.00     0.217 HD
ENDBRANCH  18  21
TORSDOF 2
ENDMDL
MODEL 5
REMARK VINA RESULT:      -6.0     16.434     18.770
REMARK  2 active torsions:
REMARK  status: ('A' for Active; 'I' for Inactive)
REMARK    1  A    between atoms: O_1  and  C_7 
REMARK    2  A    between atoms: O_2  and  C_20 
ROOT
ATOM      1  C   UNL d   1       5.148  15.975   3.284  0.00  0.00    -0.014 C 
ATOM      2  C   UNL d   1       6.360  16.907   3.090  0.00  0.00     0.001 C 
ATOM      3  C   UNL d   1       7.354  16.357   2.067  0.00  0.00    -0.001 C 
ATOM      4  C   UNL d   1       6.635  16.236   0.689  0.00  0.00     0.023 C 
ATOM      5  C   UNL d   1       4.406  16.758   4.385  0.00  0.00     0.126 C 
ATOM      6  C   UNL d   1       4.403  15.877   1.947  0.00  0.00     0.013 C 
ATOM      7  C   UNL d   1       6.830  17.181   4.516  0.00  0.00     0.008 C 
ATOM      8  C   UNL d   1       5.328  15.407   0.808  0.00  0.00     0.010 C 
ATOM      9  C   UNL d   1       5.527  17.216   5.337  0.00  0.00     0.033 C 
ATOM     10  C   UNL d   1       8.588  17.246   1.909  0.00  0.00     0.010 C 
ATOM     11  C   UNL d   1       5.498  14.549   3.780  0.00  0.00     0.018 C 
ATOM     12  C   UNL d   1       7.600  15.769  -0.399  0.00  0.00    -0.047 A 
ATOM     13  C   UNL d   1       9.599  16.571   0.986  0.00  0.00     0.039 C 
ATOM     14  C   UNL d   1       8.989  15.974  -0.260  0.00  0.00    -0.049 A 
ATOM     15  C   UNL d   1       7.127  15.210  -1.598  0.00  0.00     0.011 A 
ATOM     16  C   UNL d   1       9.863  15.571  -1.286  0.00  0.00     0.044 A 
ATOM     17  C   UNL d   1       8.004  14.822  -2.613  0.00  0.00     0.037 A 
ATOM     18  C   UNL d   1       9.373  14.997  -2.455  0.00  0.00     0.066 A 
ENDROOT
BRANCH   5  19
ATOM     19  O   UNL d   1       3.433  15.982   5.055  0.00  0.00    -0.395 OA
ATOM     20  H   UNL d   1       3.346  16.337   5.957  0.00  0.00     0.210 HD
ENDBRANCH   5  19
BRANCH  18  21
ATOM     21  O   UNL d   1      10.230  14.617  -3.440  0.00  0.00    -0.361 OA
ATOM     22  H   UNL d   1      11.010  15.200  -3.422  0.00  0.00     0.217 HD
ENDBRANCH  18  21
TORSDOF 2
ENDMDL
MODEL 6
REMARK VINA RESULT:      -5.6     16.591     19.598
REMARK  2 active torsions:
REMARK  status: ('A' for Active; 'I' for Inactive)
REMARK    1  A    between atoms: O_1  and  C_7 
REMARK    2  A    between atoms: O_2  and  C_20 
ROOT
ATOM      1  C   UNL d   1       8.219  16.940  -0.296  0.00  0.00    -0.014 C 
ATOM      2  C   UNL d   1       8.822  16.657   1.094  0.00  0.00     0.001 C 
ATOM      3  C   UNL d   1       7.808  16.871   2.218  0.00  0.00    -0.001 C 
ATOM      4  C   UNL d   1       6.623  15.879   2.014  0.00  0.00     0.023 C 
ATOM      5  C   UNL d   1       9.473  16.707  -1.162  0.00  0.00     0.126 C 
ATOM      6  C   UNL d   1       7.077  15.945  -0.532  0.00  0.00     0.013 C 
ATOM      7  C   UNL d   1      10.117  17.466   1.092  0.00  0.00     0.008 C 
ATOM      8  C   UNL d   1       6.021  16.006   0.588  0.00  0.00     0.010 C 
ATOM      9  C   UNL d   1      10.607  17.379  -0.365  0.00  0.00     0.033 C 
ATOM     10  C   UNL d   1       8.412  16.648   3.605  0.00  0.00     0.010 C 
ATOM     11  C   UNL d   1       7.689  18.383  -0.493  0.00  0.00     0.018 C 
ATOM     12  C   UNL d   1       5.612  15.984   3.154  0.00  0.00    -0.047 A 
ATOM     13  C   UNL d   1       7.391  17.015   4.679  0.00  0.00     0.039 C 
ATOM     14  C   UNL d   1       6.003  16.483   4.415  0.00  0.00    -0.049 A 
ATOM     15  C   UNL d   1       4.298  15.507   3.006  0.00  0.00     0.011 A 
ATOM     16  C   UNL d   1       5.070  16.541   5.466  0.00  0.00     0.044 A 
ATOM     17  C   UNL d   1       3.383  15.563   4.060  0.00  0.00     0.037 A 
ATOM     18  C   UNL d   1       3.767  16.084   5.289  0.00  0.00     0.066 A 
ENDROOT
BRANCH   5  19
ATOM     19  O   UNL d   1       9.354  17.247  -2.463  0.00  0.00    -0.395 OA
ATOM     20  H   UNL d   1       9.341  18.217  -2.377  0.00  0.00     0.210 HD
ENDBRANCH   5  19
BRANCH  18  21
ATOM     21  O   UNL d   1       2.878  16.142   6.316  0.00  0.00    -0.361 OA
ATOM     22  H   UNL d   1       2.284  15.373   6.263  0.00  0.00     0.217 HD
ENDBRANCH  18  21
TORSDOF 2
ENDMDL
MODEL 7
REMARK VINA RESULT:      -5.5      6.752      7.722
REMARK  2 active torsions:
REMARK  status: ('A' for Active; 'I' for Inactive)
REMARK    1  A    between atoms: O_1  and  C_7 
REMARK    2  A    between atoms: O_2  and  C_20 
ROOT
ATOM      1  C   UNL d   1      -0.771   3.638   5.759  0.00  0.00    -0.014 C 
ATOM      2  C   UNL d   1       0.632   3.001   5.777  0.00  0.00     0.001 C 
ATOM      3  C   UNL d   1       0.896   2.149   4.535  0.00  0.00    -0.001 C 
ATOM      4  C   UNL d   1       0.817   3.064   3.276  0.00  0.00     0.023 C 
ATOM      5  C   UNL d   1      -0.741   4.346   7.127  0.00  0.00     0.126 C 
ATOM      6  C   UNL d   1      -0.855   4.576   4.548  0.00  0.00     0.013 C 
ATOM      7  C   UNL d   1       0.713   2.356   7.158  0.00  0.00     0.008 C 
ATOM      8  C   UNL d   1      -0.525   3.845   3.233  0.00  0.00     0.010 C 
ATOM      9  C   UNL d   1      -0.078   3.318   8.064  0.00  0.00     0.033 C 
ATOM     10  C   UNL d   1       2.265   1.467   4.570  0.00  0.00     0.010 C 
ATOM     11  C   UNL d   1      -1.943   2.625   5.702  0.00  0.00     0.018 C 
ATOM     12  C   UNL d   1       1.154   2.287   2.006  0.00  0.00    -0.047 A 
ATOM     13  C   UNL d   1       2.404   0.524   3.378  0.00  0.00     0.039 C 
ATOM     14  C   UNL d   1       1.939   1.116   2.070  0.00  0.00    -0.049 A 
ATOM     15  C   UNL d   1       0.772   2.763   0.740  0.00  0.00     0.011 A 
ATOM     16  C   UNL d   1       2.272   0.430   0.887  0.00  0.00     0.044 A 
ATOM     17  C   UNL d   1       1.116   2.078  -0.427  0.00  0.00     0.037 A 
ATOM     18  C   UNL d   1       1.862   0.908  -0.354  0.00  0.00     0.066 A 
ENDROOT
BRANCH   5  19
ATOM     19  O   UNL d   1      -2.025   4.721   7.585  0.00  0.00    -0.395 OA
ATOM     20  H   UNL d   1      -2.229   4.174   8.363  0.00  0.00     0.210 HD
ENDBRANCH   5  19
BRANCH  18  21
ATOM     21  O   UNL d   1       2.196   0.237  -1.488  0.00  0.00    -0.361 OA
ATOM     22  H   UNL d   1       1.406  -0.219  -1.829  0.00  0.00     0.217 HD
ENDBRANCH  18  21
TORSDOF 2
ENDMDL
MODEL 8
REMARK VINA RESULT:      -5.5      7.378      9.486
REMARK  2 active torsions:
REMARK  status: ('A' for Active; 'I' for Inactive)
REMARK    1  A    between atoms: O_1  and  C_7 
REMARK    2  A    between atoms: O_2  and  C_20 
ROOT
ATOM      1  C   UNL d   1       2.629  -0.569   2.457  0.00  0.00    -0.014 C 
ATOM      2  C   UNL d   1       2.330   0.560   1.450  0.00  0.00     0.001 C 
ATOM      3  C   UNL d   1       1.297   1.552   1.986  0.00  0.00    -0.001 C 
ATOM      4  C   UNL d   1       1.867   2.217   3.275  0.00  0.00     0.023 C 
ATOM      5  C   UNL d   1       3.616  -1.399   1.613  0.00  0.00     0.126 C 
ATOM      6  C   UNL d   1       3.231   0.063   3.718  0.00  0.00     0.013 C 
ATOM      7  C   UNL d   1       2.044  -0.188   0.151  0.00  0.00     0.008 C 
ATOM      8  C   UNL d   1       2.311   1.149   4.310  0.00  0.00     0.010 C 
ATOM      9  C   UNL d   1       2.992  -1.401   0.204  0.00  0.00     0.033 C 
ATOM     10  C   UNL d   1       0.951   2.644   0.972  0.00  0.00     0.010 C 
ATOM     11  C   UNL d   1       1.402  -1.430   2.851  0.00  0.00     0.018 C 
ATOM     12  C   UNL d   1       0.915   3.283   3.814  0.00  0.00    -0.047 A 
ATOM     13  C   UNL d   1      -0.184   3.510   1.513  0.00  0.00     0.039 C 
ATOM     14  C   UNL d   1      -0.016   3.911   2.958  0.00  0.00    -0.049 A 
ATOM     15  C   UNL d   1       1.000   3.728   5.144  0.00  0.00     0.011 A 
ATOM     16  C   UNL d   1      -0.862   4.916   3.460  0.00  0.00     0.044 A 
ATOM     17  C   UNL d   1       0.160   4.733   5.628  0.00  0.00     0.037 A 
ATOM     18  C   UNL d   1      -0.775   5.324   4.788  0.00  0.00     0.066 A 
ENDROOT
BRANCH   5  19
ATOM     19  O   UNL d   1       3.800  -2.710   2.108  0.00  0.00    -0.395 OA
ATOM     20  H   UNL d   1       3.030  -2.924   2.662  0.00  0.00     0.210 HD
ENDBRANCH   5  19
BRANCH  18  21
ATOM     21  O   UNL d   1      -1.596   6.300   5.258  0.00  0.00    -0.361 OA
ATOM     22  H   UNL d   1      -2.364   6.379   4.665  0.00  0.00     0.217 HD
ENDBRANCH  18  21
TORSDOF 2
ENDMDL
MODEL 9
REMARK VINA RESULT:      -5.3      7.607      8.501
REMARK  2 active torsions:
REMARK  status: ('A' for Active; 'I' for Inactive)
REMARK    1  A    between atoms: O_1  and  C_7 
REMARK    2  A    between atoms: O_2  and  C_20 
ROOT
ATOM      1  C   UNL d   1      -0.542   3.893   3.464  0.00  0.00    -0.014 C 
ATOM      2  C   UNL d   1       0.764   3.389   4.110  0.00  0.00     0.001 C 
ATOM      3  C   UNL d   1       1.216   2.050   3.527  0.00  0.00    -0.001 C 
ATOM      4  C   UNL d   1       1.493   2.238   2.005  0.00  0.00     0.023 C 
ATOM      5  C   UNL d   1      -0.750   5.177   4.292  0.00  0.00     0.126 C 
ATOM      6  C   UNL d   1      -0.278   4.124   1.971  0.00  0.00     0.013 C 
ATOM      7  C   UNL d   1       0.485   3.497   5.607  0.00  0.00     0.008 C 
ATOM      8  C   UNL d   1       0.266   2.858   1.283  0.00  0.00     0.010 C 
ATOM      9  C   UNL d   1      -0.398   4.753   5.731  0.00  0.00     0.033 C 
ATOM     10  C   UNL d   1       2.480   1.514   4.201  0.00  0.00     0.010 C 
ATOM     11  C   UNL d   1      -1.757   2.945   3.628  0.00  0.00     0.018 C 
ATOM     12  C   UNL d   1       2.031   0.953   1.379  0.00  0.00    -0.047 A 
ATOM     13  C   UNL d   1       2.794   0.116   3.674  0.00  0.00     0.039 C 
ATOM     14  C   UNL d   1       2.678  -0.016   2.175  0.00  0.00    -0.049 A 
ATOM     15  C   UNL d   1       1.977   0.743  -0.010  0.00  0.00     0.011 A 
ATOM     16  C   UNL d   1       3.200  -1.179   1.579  0.00  0.00     0.044 A 
ATOM     17  C   UNL d   1       2.506  -0.411  -0.591  0.00  0.00     0.037 A 
ATOM     18  C   UNL d   1       3.113  -1.375   0.204  0.00  0.00     0.066 A 
ENDROOT
BRANCH   5  19
ATOM     19  O   UNL d   1      -2.065   5.687   4.201  0.00  0.00    -0.395 OA
ATOM     20  H   UNL d   1      -2.477   5.295   3.411  0.00  0.00     0.210 HD
ENDBRANCH   5  19
BRANCH  18  21
ATOM     21  O   UNL d   1       3.627  -2.501  -0.358  0.00  0.00    -0.361 OA
ATOM     22  H   UNL d   1       4.476  -2.709   0.071  0.00  0.00     0.217 HD
ENDBRANCH  18  21
TORSDOF 2
ENDMDL
