MODEL 1
REMARK VINA RESULT:      -6.5      0.000      0.000
REMARK  2 active torsions:
REMARK  status: ('A' for Active; 'I' for Inactive)
REMARK    1  A    between atoms: O_1  and  C_7 
REMARK    2  A    between atoms: O_2  and  C_20 
ROOT
ATOM      1  C   UNL d   1      -0.927   1.038  10.560  0.00  0.00    -0.014 C 
ATOM      2  C   UNL d   1      -0.057  -0.038  11.239  0.00  0.00     0.001 C 
ATOM      3  C   UNL d   1       1.331  -0.142  10.607  0.00  0.00    -0.001 C 
ATOM      4  C   UNL d   1       2.061   1.224  10.781  0.00  0.00     0.023 C 
ATOM      5  C   UNL d   1      -2.230   0.845  11.359  0.00  0.00     0.126 C 
ATOM      6  C   UNL d   1      -0.245   2.398  10.756  0.00  0.00     0.013 C 
ATOM      7  C   UNL d   1      -0.963  -1.266  11.261  0.00  0.00     0.008 C 
ATOM      8  C   UNL d   1       1.203   2.394  10.229  0.00  0.00     0.010 C 
ATOM      9  C   UNL d   1      -2.373  -0.685  11.476  0.00  0.00     0.033 C 
ATOM     10  C   UNL d   1       2.182  -1.246  11.237  0.00  0.00     0.010 C 
ATOM     11  C   UNL d   1      -1.182   0.808   9.048  0.00  0.00     0.018 C 
ATOM     12  C   UNL d   1       3.489   1.160  10.243  0.00  0.00    -0.047 A 
ATOM     13  C   UNL d   1       3.493  -1.390  10.469  0.00  0.00     0.039 C 
ATOM     14  C   UNL d   1       4.162  -0.077  10.143  0.00  0.00    -0.049 A 
ATOM     15  C   UNL d   1       4.198   2.330   9.920  0.00  0.00     0.011 A 
ATOM     16  C   UNL d   1       5.490  -0.117   9.679  0.00  0.00     0.044 A 
ATOM     17  C   UNL d   1       5.518   2.277   9.469  0.00  0.00     0.037 A 
ATOM     18  C   UNL d   1       6.163   1.054   9.343  0.00  0.00     0.066 A 
ENDROOT
BRANCH   5  19
ATOM     19  O   UNL d   1      -3.355   1.430  10.732  0.00  0.00    -0.395 OA
ATOM     20  H   UNL d   1      -4.146   1.130  11.213  0.00  0.00     0.210 HD
ENDBRANCH   5  19
BRANCH  18  21
ATOM     21  O   UNL d   1       7.448   0.999   8.901  0.00  0.00    -0.361 OA
ATOM     22  H   UNL d   1       7.462   1.195   7.948  0.00  0.00     0.217 HD
ENDBRANCH  18  21
TORSDOF 2
ENDMDL
MODEL 2
REMARK VINA RESULT:      -6.1      2.437      4.277
REMARK  2 active torsions:
REMARK  status: ('A' for Active; 'I' for Inactive)
REMARK    1  A    between atoms: O_1  and  C_7 
REMARK    2  A    between atoms: O_2  and  C_20 
ROOT
ATOM      1  C   UNL d   1       1.428   0.747  10.276  0.00  0.00    -0.014 C 
ATOM      2  C   UNL d   1       2.690   0.745   9.391  0.00  0.00     0.001 C 
ATOM      3  C   UNL d   1       3.887   0.106  10.094  0.00  0.00    -0.001 C 
ATOM      4  C   UNL d   1       3.542  -1.380  10.415  0.00  0.00     0.023 C 
ATOM      5  C   UNL d   1       0.464   1.493   9.333  0.00  0.00     0.126 C 
ATOM      6  C   UNL d   1       1.048  -0.709  10.569  0.00  0.00     0.013 C 
ATOM      7  C   UNL d   1       2.789   2.190   8.909  0.00  0.00     0.008 C 
ATOM      8  C   UNL d   1       2.213  -1.489  11.209  0.00  0.00     0.010 C 
ATOM      9  C   UNL d   1       1.322   2.629   8.744  0.00  0.00     0.033 C 
ATOM     10  C   UNL d   1       5.159   0.150   9.245  0.00  0.00     0.010 C 
ATOM     11  C   UNL d   1       1.575   1.516  11.614  0.00  0.00     0.018 C 
ATOM     12  C   UNL d   1       4.733  -2.100  11.045  0.00  0.00    -0.047 A 
ATOM     13  C   UNL d   1       6.342  -0.371  10.057  0.00  0.00     0.039 C 
ATOM     14  C   UNL d   1       6.047  -1.634  10.830  0.00  0.00    -0.049 A 
ATOM     15  C   UNL d   1       4.559  -3.288  11.775  0.00  0.00     0.011 A 
ATOM     16  C   UNL d   1       7.137  -2.328  11.387  0.00  0.00     0.044 A 
ATOM     17  C   UNL d   1       5.650  -3.973  12.316  0.00  0.00     0.037 A 
ATOM     18  C   UNL d   1       6.939  -3.491  12.127  0.00  0.00     0.066 A 
ENDROOT
BRANCH   5  19
ATOM     19  O   UNL d   1      -0.683   1.990   9.994  0.00  0.00    -0.395 OA
ATOM     20  H   UNL d   1      -1.165   1.227  10.357  0.00  0.00     0.210 HD
ENDBRANCH   5  19
BRANCH  18  21
ATOM     21  O   UNL d   1       8.002  -4.153  12.655  0.00  0.00    -0.361 OA
ATOM     22  H   UNL d   1       8.744  -3.531  12.755  0.00  0.00     0.217 HD
ENDBRANCH  18  21
TORSDOF 2
ENDMDL
MODEL 3
REMARK VINA RESULT:      -6.0      3.406      6.820
REMARK  2 active torsions:
REMARK  status: ('A' for Active; 'I' for Inactive)
REMARK    1  A    between atoms: O_1  and  C_7 
REMARK    2  A    between atoms: O_2  and  C_20 
ROOT
ATOM      1  C   UNL d   1       6.728  -3.550  11.816  0.00  0.00    -0.014 C 
ATOM      2  C   UNL d   1       5.257  -3.859  11.475  0.00  0.00     0.001 C 
ATOM      3  C   UNL d   1       4.378  -2.610  11.527  0.00  0.00    -0.001 C 
ATOM      4  C   UNL d   1       4.896  -1.592  10.466  0.00  0.00     0.023 C 
ATOM      5  C   UNL d   1       7.306  -4.977  11.744  0.00  0.00     0.126 C 
ATOM      6  C   UNL d   1       7.269  -2.580  10.758  0.00  0.00     0.013 C 
ATOM      7  C   UNL d   1       4.925  -5.045  12.377  0.00  0.00     0.008 C 
ATOM      8  C   UNL d   1       6.410  -1.306  10.655  0.00  0.00     0.010 C 
ATOM      9  C   UNL d   1       6.239  -5.846  12.438  0.00  0.00     0.033 C 
ATOM     10  C   UNL d   1       2.905  -2.916  11.246  0.00  0.00     0.010 C 
ATOM     11  C   UNL d   1       6.956  -2.947  13.226  0.00  0.00     0.018 C 
ATOM     12  C   UNL d   1       4.005  -0.353  10.408  0.00  0.00    -0.047 A 
ATOM     13  C   UNL d   1       2.066  -1.658  11.453  0.00  0.00     0.039 C 
ATOM     14  C   UNL d   1       2.662  -0.415  10.839  0.00  0.00    -0.049 A 
ATOM     15  C   UNL d   1       4.468   0.849   9.846  0.00  0.00     0.011 A 
ATOM     16  C   UNL d   1       1.844   0.726  10.747  0.00  0.00     0.044 A 
ATOM     17  C   UNL d   1       3.643   1.972   9.753  0.00  0.00     0.037 A 
ATOM     18  C   UNL d   1       2.332   1.912  10.208  0.00  0.00     0.066 A 
ENDROOT
BRANCH   5  19
ATOM     19  O   UNL d   1       8.568  -5.095  12.370  0.00  0.00    -0.395 OA
ATOM     20  H   UNL d   1       9.238  -5.163  11.668  0.00  0.00     0.210 HD
ENDBRANCH   5  19
BRANCH  18  21
ATOM     21  O   UNL d   1       1.527   3.004  10.121  0.00  0.00    -0.361 OA
ATOM     22  H   UNL d   1       1.559   3.488  10.965  0.00  0.00     0.217 HD
ENDBRANCH  18  21
TORSDOF 2
ENDMDL
MODEL 4
REMARK VINA RESULT:      -5.8      1.745      2.492
REMARK  2 active torsions:
REMARK  status: ('A' for Active; 'I' for Inactive)
REMARK    1  A    between atoms: O_1  and  C_7 
REMARK    2  A    between atoms: O_2  and  C_20 
ROOT
ATOM      1  C   UNL d   1       0.750   1.739   9.693  0.00  0.00    -0.014 C 
ATOM      2  C   UNL d   1       0.775   0.655  10.789  0.00  0.00     0.001 C 
ATOM      3  C   UNL d   1       1.896  -0.361  10.570  0.00  0.00    -0.001 C 
ATOM      4  C   UNL d   1       3.263   0.386  10.624  0.00  0.00     0.023 C 
ATOM      5  C   UNL d   1      -0.489   2.531  10.155  0.00  0.00     0.126 C 
ATOM      6  C   UNL d   1       2.072   2.514   9.758  0.00  0.00     0.013 C 
ATOM      7  C   UNL d   1      -0.672   0.172  10.844  0.00  0.00     0.008 C 
ATOM      8  C   UNL d   1       3.290   1.580   9.631  0.00  0.00     0.010 C 
ATOM      9  C   UNL d   1      -1.499   1.440  10.561  0.00  0.00     0.033 C 
ATOM     10  C   UNL d   1       1.894  -1.473  11.620  0.00  0.00     0.010 C 
ATOM     11  C   UNL d   1       0.541   1.204   8.254  0.00  0.00     0.018 C 
ATOM     12  C   UNL d   1       4.431  -0.589  10.495  0.00  0.00    -0.047 A 
ATOM     13  C   UNL d   1       2.941  -2.525  11.262  0.00  0.00     0.039 C 
ATOM     14  C   UNL d   1       4.270  -1.948  10.841  0.00  0.00    -0.049 A 
ATOM     15  C   UNL d   1       5.710  -0.146  10.119  0.00  0.00     0.011 A 
ATOM     16  C   UNL d   1       5.365  -2.828  10.751  0.00  0.00     0.044 A 
ATOM     17  C   UNL d   1       6.790  -1.027  10.041  0.00  0.00     0.037 A 
ATOM     18  C   UNL d   1       6.617  -2.370  10.353  0.00  0.00     0.066 A 
ENDROOT
BRANCH   5  19
ATOM     19  O   UNL d   1      -1.009   3.381   9.152  0.00  0.00    -0.395 OA
ATOM     20  H   UNL d   1      -1.207   2.828   8.375  0.00  0.00     0.210 HD
ENDBRANCH   5  19
BRANCH  18  21
ATOM     21  O   UNL d   1       7.666  -3.231  10.276  0.00  0.00    -0.361 OA
ATOM     22  H   UNL d   1       7.603  -3.732   9.444  0.00  0.00     0.217 HD
ENDBRANCH  18  21
TORSDOF 2
ENDMDL
MODEL 5
REMARK VINA RESULT:      -5.5      6.469      7.377
REMARK  2 active torsions:
REMARK  status: ('A' for Active; 'I' for Inactive)
REMARK    1  A    between atoms: O_1  and  C_7 
REMARK    2  A    between atoms: O_2  and  C_20 
ROOT
ATOM      1  C   UNL d   1       0.476   2.619   6.880  0.00  0.00    -0.014 C 
ATOM      2  C   UNL d   1       1.771   1.957   6.368  0.00  0.00     0.001 C 
ATOM      3  C   UNL d   1       1.641   1.477   4.923  0.00  0.00    -0.001 C 
ATOM      4  C   UNL d   1       1.358   2.709   4.012  0.00  0.00     0.023 C 
ATOM      5  C   UNL d   1       0.905   2.916   8.330  0.00  0.00     0.126 C 
ATOM      6  C   UNL d   1       0.203   3.860   6.021  0.00  0.00     0.013 C 
ATOM      7  C   UNL d   1       2.112   0.951   7.464  0.00  0.00     0.008 C 
ATOM      8  C   UNL d   1       0.132   3.515   4.521  0.00  0.00     0.010 C 
ATOM      9  C   UNL d   1       1.663   1.646   8.762  0.00  0.00     0.033 C 
ATOM     10  C   UNL d   1       2.902   0.768   4.424  0.00  0.00     0.010 C 
ATOM     11  C   UNL d   1      -0.773   1.701   6.865  0.00  0.00     0.018 C 
ATOM     12  C   UNL d   1       1.301   2.307   2.540  0.00  0.00    -0.047 A 
ATOM     13  C   UNL d   1       2.655   0.191   3.033  0.00  0.00     0.039 C 
ATOM     14  C   UNL d   1       1.954   1.139   2.091  0.00  0.00    -0.049 A 
ATOM     15  C   UNL d   1       0.678   3.129   1.585  0.00  0.00     0.011 A 
ATOM     16  C   UNL d   1       1.923   0.799   0.726  0.00  0.00     0.044 A 
ATOM     17  C   UNL d   1       0.662   2.785   0.232  0.00  0.00     0.037 A 
ATOM     18  C   UNL d   1       1.280   1.618  -0.198  0.00  0.00     0.066 A 
ENDROOT
BRANCH   5  19
ATOM     19  O   UNL d   1      -0.188   3.191   9.185  0.00  0.00    -0.395 OA
ATOM     20  H   UNL d   1      -0.894   2.556   8.970  0.00  0.00     0.210 HD
ENDBRANCH   5  19
BRANCH  18  21
ATOM     21  O   UNL d   1       1.263   1.279  -1.515  0.00  0.00    -0.361 OA
ATOM     22  H   UNL d   1       1.621   2.019  -2.036  0.00  0.00     0.217 HD
ENDBRANCH  18  21
TORSDOF 2
ENDMDL
MODEL 6
REMARK VINA RESULT:      -5.5      7.485      9.451
REMARK  2 active torsions:
REMARK  status: ('A' for Active; 'I' for Inactive)
REMARK    1  A    between atoms: O_1  and  C_7 
REMARK    2  A    between atoms: O_2  and  C_20 
ROOT
ATOM      1  C   UNL d   1       2.773  -0.956   2.542  0.00  0.00    -0.014 C 
ATOM      2  C   UNL d   1       2.507   0.136   1.487  0.00  0.00     0.001 C 
ATOM      3  C   UNL d   1       1.520   1.191   1.985  0.00  0.00    -0.001 C 
ATOM      4  C   UNL d   1       2.129   1.893   3.237  0.00  0.00     0.023 C 
ATOM      5  C   UNL d   1       3.719  -1.862   1.729  0.00  0.00     0.126 C 
ATOM      6  C   UNL d   1       3.413  -0.290   3.767  0.00  0.00     0.013 C 
ATOM      7  C   UNL d   1       2.179  -0.659   0.226  0.00  0.00     0.008 C 
ATOM      8  C   UNL d   1       2.542   0.856   4.316  0.00  0.00     0.010 C 
ATOM      9  C   UNL d   1       3.080  -1.904   0.327  0.00  0.00     0.033 C 
ATOM     10  C   UNL d   1       1.205   2.249   0.925  0.00  0.00     0.010 C 
ATOM     11  C   UNL d   1       1.518  -1.749   2.987  0.00  0.00     0.018 C 
ATOM     12  C   UNL d   1       1.225   3.019   3.734  0.00  0.00    -0.047 A 
ATOM     13  C   UNL d   1       0.111   3.183   1.434  0.00  0.00     0.039 C 
ATOM     14  C   UNL d   1       0.310   3.643   2.858  0.00  0.00    -0.049 A 
ATOM     15  C   UNL d   1       1.341   3.521   5.041  0.00  0.00     0.011 A 
ATOM     16  C   UNL d   1      -0.491   4.702   3.321  0.00  0.00     0.044 A 
ATOM     17  C   UNL d   1       0.546   4.579   5.486  0.00  0.00     0.037 A 
ATOM     18  C   UNL d   1      -0.374   5.167   4.628  0.00  0.00     0.066 A 
ENDROOT
BRANCH   5  19
ATOM     19  O   UNL d   1       3.857  -3.155   2.282  0.00  0.00    -0.395 OA
ATOM     20  H   UNL d   1       2.983  -3.425   2.616  0.00  0.00     0.210 HD
ENDBRANCH   5  19
BRANCH  18  21
ATOM     21  O   UNL d   1      -1.152   6.196   5.059  0.00  0.00    -0.361 OA
ATOM     22  H   UNL d   1      -1.048   6.947   4.449  0.00  0.00     0.217 HD
ENDBRANCH  18  21
TORSDOF 2
ENDMDL
MODEL 7
REMARK VINA RESULT:      -5.4     14.899     17.533
REMARK  2 active torsions:
REMARK  status: ('A' for Active; 'I' for Inactive)
REMARK    1  A    between atoms: O_1  and  C_7 
REMARK    2  A    between atoms: O_2  and  C_20 
ROOT
ATOM      1  C   UNL d   1       7.290   5.226  -6.642  0.00  0.00    -0.014 C 
ATOM      2  C   UNL d   1       7.879   5.296  -5.220  0.00  0.00     0.001 C 
ATOM      3  C   UNL d   1       7.184   6.350  -4.358  0.00  0.00    -0.001 C 
ATOM      4  C   UNL d   1       5.680   5.967  -4.219  0.00  0.00     0.023 C 
ATOM      5  C   UNL d   1       8.222   4.158  -7.246  0.00  0.00     0.126 C 
ATOM      6  C   UNL d   1       5.818   4.810  -6.529  0.00  0.00     0.013 C 
ATOM      7  C   UNL d   1       9.383   5.401  -5.462  0.00  0.00     0.008 C 
ATOM      8  C   UNL d   1       5.023   5.757  -5.610  0.00  0.00     0.010 C 
ATOM      9  C   UNL d   1       9.618   4.539  -6.717  0.00  0.00     0.033 C 
ATOM     10  C   UNL d   1       7.799   6.466  -2.962  0.00  0.00     0.010 C 
ATOM     11  C   UNL d   1       7.387   6.545  -7.451  0.00  0.00     0.018 C 
ATOM     12  C   UNL d   1       4.945   6.938  -3.298  0.00  0.00    -0.047 A 
ATOM     13  C   UNL d   1       7.157   7.628  -2.208  0.00  0.00     0.039 C 
ATOM     14  C   UNL d   1       5.653   7.680  -2.328  0.00  0.00    -0.049 A 
ATOM     15  C   UNL d   1       3.545   7.051  -3.329  0.00  0.00     0.011 A 
ATOM     16  C   UNL d   1       4.959   8.545  -1.462  0.00  0.00     0.044 A 
ATOM     17  C   UNL d   1       2.866   7.906  -2.458  0.00  0.00     0.037 A 
ATOM     18  C   UNL d   1       3.573   8.657  -1.528  0.00  0.00     0.066 A 
ENDROOT
BRANCH   5  19
ATOM     19  O   UNL d   1       8.187   4.127  -8.659  0.00  0.00    -0.395 OA
ATOM     20  H   UNL d   1       8.834   3.462  -8.953  0.00  0.00     0.210 HD
ENDBRANCH   5  19
BRANCH  18  21
ATOM     21  O   UNL d   1       2.916   9.493  -0.681  0.00  0.00    -0.361 OA
ATOM     22  H   UNL d   1       1.999   9.599  -0.991  0.00  0.00     0.217 HD
ENDBRANCH  18  21
TORSDOF 2
ENDMDL
MODEL 8
REMARK VINA RESULT:      -5.3      6.116      7.789
REMARK  2 active torsions:
REMARK  status: ('A' for Active; 'I' for Inactive)
REMARK    1  A    between atoms: O_1  and  C_7 
REMARK    2  A    between atoms: O_2  and  C_20 
ROOT
ATOM      1  C   UNL d   1       1.783   0.605   2.227  0.00  0.00    -0.014 C 
ATOM      2  C   UNL d   1       1.618   2.058   2.713  0.00  0.00     0.001 C 
ATOM      3  C   UNL d   1       1.215   2.132   4.186  0.00  0.00    -0.001 C 
ATOM      4  C   UNL d   1       2.341   1.480   5.044  0.00  0.00     0.023 C 
ATOM      5  C   UNL d   1       2.111   0.874   0.746  0.00  0.00     0.126 C 
ATOM      6  C   UNL d   1       2.917  -0.042   3.032  0.00  0.00     0.013 C 
ATOM      7  C   UNL d   1       0.712   2.686   1.657  0.00  0.00     0.008 C 
ATOM      8  C   UNL d   1       2.664   0.044   4.550  0.00  0.00     0.010 C 
ATOM      9  C   UNL d   1       1.137   1.999   0.346  0.00  0.00     0.033 C 
ATOM     10  C   UNL d   1       0.994   3.569   4.663  0.00  0.00     0.010 C 
ATOM     11  C   UNL d   1       0.508  -0.269   2.347  0.00  0.00     0.018 C 
ATOM     12  C   UNL d   1       2.037   1.598   6.536  0.00  0.00    -0.047 A 
ATOM     13  C   UNL d   1       0.458   3.563   6.092  0.00  0.00     0.039 C 
ATOM     14  C   UNL d   1       1.180   2.612   7.015  0.00  0.00    -0.049 A 
ATOM     15  C   UNL d   1       2.668   0.762   7.474  0.00  0.00     0.011 A 
ATOM     16  C   UNL d   1       0.937   2.730   8.396  0.00  0.00     0.044 A 
ATOM     17  C   UNL d   1       2.425   0.895   8.843  0.00  0.00     0.037 A 
ATOM     18  C   UNL d   1       1.556   1.876   9.304  0.00  0.00     0.066 A 
ENDROOT
BRANCH   5  19
ATOM     19  O   UNL d   1       1.956  -0.270  -0.072  0.00  0.00    -0.395 OA
ATOM     20  H   UNL d   1       1.774   0.040  -0.976  0.00  0.00     0.210 HD
ENDBRANCH   5  19
BRANCH  18  21
ATOM     21  O   UNL d   1       1.315   2.006  10.636  0.00  0.00    -0.361 OA
ATOM     22  H   UNL d   1       2.145   1.856  11.122  0.00  0.00     0.217 HD
ENDBRANCH  18  21
TORSDOF 2
ENDMDL
MODEL 9
REMARK VINA RESULT:      -5.2      4.588      7.858
REMARK  2 active torsions:
REMARK  status: ('A' for Active; 'I' for Inactive)
REMARK    1  A    between atoms: O_1  and  C_7 
REMARK    2  A    between atoms: O_2  and  C_20 
ROOT
ATOM      1  C   UNL d   1      -2.509   1.987  10.957  0.00  0.00    -0.014 C 
ATOM      2  C   UNL d   1      -3.366   0.858  11.562  0.00  0.00     0.001 C 
ATOM      3  C   UNL d   1      -3.203   0.760  13.079  0.00  0.00    -0.001 C 
ATOM      4  C   UNL d   1      -3.678   2.099  13.720  0.00  0.00     0.023 C 
ATOM      5  C   UNL d   1      -2.840   1.777   9.466  0.00  0.00     0.126 C 
ATOM      6  C   UNL d   1      -2.990   3.319  11.544  0.00  0.00     0.013 C 
ATOM      7  C   UNL d   1      -3.028  -0.351  10.694  0.00  0.00     0.008 C 
ATOM      8  C   UNL d   1      -2.951   3.315  13.084  0.00  0.00     0.010 C 
ATOM      9  C   UNL d   1      -2.817   0.247   9.290  0.00  0.00     0.033 C 
ATOM     10  C   UNL d   1      -4.006  -0.394  13.683  0.00  0.00     0.010 C 
ATOM     11  C   UNL d   1      -0.984   1.844  11.195  0.00  0.00     0.018 C 
ATOM     12  C   UNL d   1      -3.619   2.034  15.244  0.00  0.00    -0.047 A 
ATOM     13  C   UNL d   1      -3.687  -0.524  15.170  0.00  0.00     0.039 C 
ATOM     14  C   UNL d   1      -3.667   0.791  15.911  0.00  0.00    -0.049 A 
ATOM     15  C   UNL d   1      -3.606   3.205  16.021  0.00  0.00     0.011 A 
ATOM     16  C   UNL d   1      -3.647   0.749  17.317  0.00  0.00     0.044 A 
ATOM     17  C   UNL d   1      -3.595   3.150  17.416  0.00  0.00     0.037 A 
ATOM     18  C   UNL d   1      -3.611   1.922  18.065  0.00  0.00     0.066 A 
ENDROOT
BRANCH   5  19
ATOM     19  O   UNL d   1      -1.924   2.419   8.601  0.00  0.00    -0.395 OA
ATOM     20  H   UNL d   1      -1.045   2.366   9.015  0.00  0.00     0.210 HD
ENDBRANCH   5  19
BRANCH  18  21
ATOM     21  O   UNL d   1      -3.597   1.865  19.423  0.00  0.00    -0.361 OA
ATOM     22  H   UNL d   1      -4.511   1.764  19.744  0.00  0.00     0.217 HD
ENDBRANCH  18  21
TORSDOF 2
ENDMDL
