MODEL 1
REMARK VINA RESULT:      -6.4      0.000      0.000
REMARK  1 active torsions:
REMARK  status: ('A' for Active; 'I' for Inactive)
REMARK    1  A    between atoms: O_1  and  C_13 
ROOT
ATOM      1  O   UNL d   1       0.681   3.389   9.761  0.00  0.00    -0.298 OA
ATOM      2  C   UNL d   1       5.103  -1.236  10.063  0.00  0.00    -0.005 C 
ATOM      3  C   UNL d   1       3.756  -1.093  10.839  0.00  0.00    -0.002 C 
ATOM      4  C   UNL d   1       5.920  -2.361  10.707  0.00  0.00     0.001 C 
ATOM      5  C   UNL d   1       5.194  -3.719  10.679  0.00  0.00    -0.014 C 
ATOM      6  C   UNL d   1       2.865   0.080  10.284  0.00  0.00    -0.036 C 
ATOM      7  C   UNL d   1       3.717   1.390  10.270  0.00  0.00     0.001 C 
ATOM      8  C   UNL d   1       3.012  -2.451  10.968  0.00  0.00     0.007 C 
ATOM      9  C   UNL d   1       3.905  -3.587  11.502  0.00  0.00     0.012 C 
ATOM     10  C   UNL d   1       5.879   0.087  10.069  0.00  0.00     0.006 C 
ATOM     11  C   UNL d   1       7.306  -2.687  10.153  0.00  0.00     0.008 C 
ATOM     12  C   UNL d   1       6.282  -4.599  11.322  0.00  0.00     0.126 C 
ATOM     13  C   UNL d   1       5.045   1.238   9.517  0.00  0.00     0.006 C 
ATOM     14  C   UNL d   1       7.592  -4.105  10.678  0.00  0.00     0.033 C 
ATOM     15  C   UNL d   1       1.633   0.298  11.220  0.00  0.00     0.017 C 
ATOM     16  C   UNL d   1       4.851  -4.239   9.259  0.00  0.00     0.018 C 
ATOM     17  C   UNL d   1       2.338  -0.255   8.864  0.00  0.00     0.016 C 
ATOM     18  C   UNL d   1       2.936   2.593   9.717  0.00  0.00     0.083 C 
ATOM     19  C   UNL d   1       1.202   1.751  11.424  0.00  0.00     0.079 C 
ATOM     20  C   UNL d   1       1.519   2.624  10.239  0.00  0.00     0.127 C 
ENDROOT
BRANCH  12  21
ATOM     21  O   UNL d   1       6.077  -5.982  11.101  0.00  0.00    -0.395 OA
ATOM     22  H   UNL d   1       6.231  -6.177  10.162  0.00  0.00     0.210 HD
ENDBRANCH  12  21
TORSDOF 1
ENDMDL
MODEL 2
REMARK VINA RESULT:      -6.2      2.048      6.841
REMARK  1 active torsions:
REMARK  status: ('A' for Active; 'I' for Inactive)
REMARK    1  A    between atoms: O_1  and  C_13 
ROOT
ATOM      1  O   UNL d   1       7.279  -1.615   9.024  0.00  0.00    -0.298 OA
ATOM      2  C   UNL d   1       1.250   0.027  10.437  0.00  0.00    -0.005 C 
ATOM      3  C   UNL d   1       2.487   0.934  10.144  0.00  0.00    -0.002 C 
ATOM      4  C   UNL d   1       0.126   0.903  10.999  0.00  0.00     0.001 C 
ATOM      5  C   UNL d   1      -0.306   2.020  10.029  0.00  0.00    -0.014 C 
ATOM      6  C   UNL d   1       3.720   0.112   9.611  0.00  0.00    -0.036 C 
ATOM      7  C   UNL d   1       4.021  -1.045  10.616  0.00  0.00     0.001 C 
ATOM      8  C   UNL d   1       2.113   2.162   9.269  0.00  0.00     0.007 C 
ATOM      9  C   UNL d   1       0.898   2.944   9.801  0.00  0.00     0.012 C 
ATOM     10  C   UNL d   1       1.617  -1.098  11.411  0.00  0.00     0.006 C 
ATOM     11  C   UNL d   1      -1.196   0.253  11.402  0.00  0.00     0.008 C 
ATOM     12  C   UNL d   1      -1.448   2.641  10.853  0.00  0.00     0.126 C 
ATOM     13  C   UNL d   1       2.797  -1.923  10.909  0.00  0.00     0.006 C 
ATOM     14  C   UNL d   1      -2.193   1.425  11.437  0.00  0.00     0.033 C 
ATOM     15  C   UNL d   1       4.976   1.038   9.527  0.00  0.00     0.017 C 
ATOM     16  C   UNL d   1      -0.839   1.517   8.662  0.00  0.00     0.018 C 
ATOM     17  C   UNL d   1       3.436  -0.444   8.190  0.00  0.00     0.016 C 
ATOM     18  C   UNL d   1       5.199  -1.923  10.166  0.00  0.00     0.083 C 
ATOM     19  C   UNL d   1       6.307   0.386   9.903  0.00  0.00     0.079 C 
ATOM     20  C   UNL d   1       6.334  -1.092   9.617  0.00  0.00     0.127 C 
ENDROOT
BRANCH  12  21
ATOM     21  O   UNL d   1      -2.306   3.460  10.080  0.00  0.00    -0.395 OA
ATOM     22  H   UNL d   1      -2.288   3.153   9.158  0.00  0.00     0.210 HD
ENDBRANCH  12  21
TORSDOF 1
ENDMDL
MODEL 3
REMARK VINA RESULT:      -6.1      2.291      3.588
REMARK  1 active torsions:
REMARK  status: ('A' for Active; 'I' for Inactive)
REMARK    1  A    between atoms: O_1  and  C_13 
ROOT
ATOM      1  O   UNL d   1      -3.500   1.722  10.296  0.00  0.00    -0.298 OA
ATOM      2  C   UNL d   1       2.852   1.150   9.695  0.00  0.00    -0.005 C 
ATOM      3  C   UNL d   1       1.832   0.219  10.423  0.00  0.00    -0.002 C 
ATOM      4  C   UNL d   1       4.269   0.725  10.091  0.00  0.00     0.001 C 
ATOM      5  C   UNL d   1       4.584  -0.735   9.712  0.00  0.00    -0.014 C 
ATOM      6  C   UNL d   1       0.338   0.613  10.121  0.00  0.00    -0.036 C 
ATOM      7  C   UNL d   1       0.144   2.127  10.453  0.00  0.00     0.001 C 
ATOM      8  C   UNL d   1       2.152  -1.285  10.196  0.00  0.00     0.007 C 
ATOM      9  C   UNL d   1       3.621  -1.646  10.485  0.00  0.00     0.012 C 
ATOM     10  C   UNL d   1       2.594   2.621  10.046  0.00  0.00     0.006 C 
ATOM     11  C   UNL d   1       5.463   1.501   9.537  0.00  0.00     0.008 C 
ATOM     12  C   UNL d   1       6.051  -0.805  10.177  0.00  0.00     0.126 C 
ATOM     13  C   UNL d   1       1.159   3.035   9.744  0.00  0.00     0.006 C 
ATOM     14  C   UNL d   1       6.651   0.541   9.725  0.00  0.00     0.033 C 
ATOM     15  C   UNL d   1      -0.623  -0.222  11.027  0.00  0.00     0.017 C 
ATOM     16  C   UNL d   1       4.485  -1.044   8.196  0.00  0.00     0.018 C 
ATOM     17  C   UNL d   1      -0.019   0.318   8.640  0.00  0.00     0.016 C 
ATOM     18  C   UNL d   1      -1.284   2.614  10.165  0.00  0.00     0.083 C 
ATOM     19  C   UNL d   1      -1.856   0.518  11.547  0.00  0.00     0.079 C 
ATOM     20  C   UNL d   1      -2.317   1.609  10.617  0.00  0.00     0.127 C 
ENDROOT
BRANCH  12  21
ATOM     21  O   UNL d   1       6.753  -1.904   9.628  0.00  0.00    -0.395 OA
ATOM     22  H   UNL d   1       7.590  -2.014  10.108  0.00  0.00     0.210 HD
ENDBRANCH  12  21
TORSDOF 1
ENDMDL
MODEL 4
REMARK VINA RESULT:      -6.0      1.217      6.655
REMARK  1 active torsions:
REMARK  status: ('A' for Active; 'I' for Inactive)
REMARK    1  A    between atoms: O_1  and  C_13 
ROOT
ATOM      1  O   UNL d   1       7.480  -4.699  10.665  0.00  0.00    -0.298 OA
ATOM      2  C   UNL d   1       2.227  -1.032  10.622  0.00  0.00    -0.005 C 
ATOM      3  C   UNL d   1       3.732  -0.617  10.674  0.00  0.00    -0.002 C 
ATOM      4  C   UNL d   1       1.371   0.202  10.925  0.00  0.00     0.001 C 
ATOM      5  C   UNL d   1       1.596   1.347   9.920  0.00  0.00    -0.014 C 
ATOM      6  C   UNL d   1       4.698  -1.836  10.428  0.00  0.00    -0.036 C 
ATOM      7  C   UNL d   1       4.333  -2.974  11.433  0.00  0.00     0.001 C 
ATOM      8  C   UNL d   1       4.025   0.619   9.779  0.00  0.00     0.007 C 
ATOM      9  C   UNL d   1       3.061   1.794  10.027  0.00  0.00     0.012 C 
ATOM     10  C   UNL d   1       1.941  -2.165  11.616  0.00  0.00     0.006 C 
ATOM     11  C   UNL d   1      -0.150   0.061  10.970  0.00  0.00     0.008 C 
ATOM     12  C   UNL d   1       0.572   2.362  10.462  0.00  0.00     0.126 C 
ATOM     13  C   UNL d   1       2.850  -3.366  11.387  0.00  0.00     0.006 C 
ATOM     14  C   UNL d   1      -0.661   1.503  10.803  0.00  0.00     0.033 C 
ATOM     15  C   UNL d   1       6.176  -1.399  10.687  0.00  0.00     0.017 C 
ATOM     16  C   UNL d   1       1.269   0.988   8.447  0.00  0.00     0.018 C 
ATOM     17  C   UNL d   1       4.593  -2.333   8.962  0.00  0.00     0.016 C 
ATOM     18  C   UNL d   1       5.211  -4.222  11.253  0.00  0.00     0.083 C 
ATOM     19  C   UNL d   1       7.072  -2.445  11.352  0.00  0.00     0.079 C 
ATOM     20  C   UNL d   1       6.659  -3.856  11.028  0.00  0.00     0.127 C 
ENDROOT
BRANCH  12  21
ATOM     21  O   UNL d   1       0.260   3.383   9.533  0.00  0.00    -0.395 OA
ATOM     22  H   UNL d   1      -0.289   3.008   8.825  0.00  0.00     0.210 HD
ENDBRANCH  12  21
TORSDOF 1
ENDMDL
MODEL 5
REMARK VINA RESULT:      -5.6     17.816     19.944
REMARK  1 active torsions:
REMARK  status: ('A' for Active; 'I' for Inactive)
REMARK    1  A    between atoms: O_1  and  C_13 
ROOT
ATOM      1  O   UNL d   1       1.442  13.570   0.527  0.00  0.00    -0.298 OA
ATOM      2  C   UNL d   1       6.824  16.459   2.454  0.00  0.00    -0.005 C 
ATOM      3  C   UNL d   1       6.549  15.624   1.164  0.00  0.00    -0.002 C 
ATOM      4  C   UNL d   1       8.336  16.679   2.579  0.00  0.00     0.001 C 
ATOM      5  C   UNL d   1       8.932  17.431   1.374  0.00  0.00    -0.014 C 
ATOM      6  C   UNL d   1       5.020  15.298   0.976  0.00  0.00    -0.036 C 
ATOM      7  C   UNL d   1       4.490  14.620   2.280  0.00  0.00     0.001 C 
ATOM      8  C   UNL d   1       7.226  16.248  -0.088  0.00  0.00     0.007 C 
ATOM      9  C   UNL d   1       8.716  16.570   0.121  0.00  0.00     0.012 C 
ATOM     10  C   UNL d   1       6.262  15.750   3.692  0.00  0.00     0.006 C 
ATOM     11  C   UNL d   1       8.881  17.446   3.782  0.00  0.00     0.008 C 
ATOM     12  C   UNL d   1      10.396  17.532   1.841  0.00  0.00     0.126 C 
ATOM     13  C   UNL d   1       4.777  15.440   3.545  0.00  0.00     0.006 C 
ATOM     14  C   UNL d   1      10.288  17.884   3.338  0.00  0.00     0.033 C 
ATOM     15  C   UNL d   1       4.834  14.301  -0.213  0.00  0.00     0.017 C 
ATOM     16  C   UNL d   1       8.343  18.845   1.138  0.00  0.00     0.018 C 
ATOM     17  C   UNL d   1       4.219  16.586   0.653  0.00  0.00     0.016 C 
ATOM     18  C   UNL d   1       2.993  14.285   2.202  0.00  0.00     0.083 C 
ATOM     19  C   UNL d   1       3.744  13.244  -0.030  0.00  0.00     0.079 C 
ATOM     20  C   UNL d   1       2.620  13.713   0.854  0.00  0.00     0.127 C 
ENDROOT
BRANCH  12  21
ATOM     21  O   UNL d   1      11.138  18.503   1.126  0.00  0.00    -0.395 OA
ATOM     22  H   UNL d   1      11.992  18.118   0.866  0.00  0.00     0.210 HD
ENDBRANCH  12  21
TORSDOF 1
ENDMDL
MODEL 6
REMARK VINA RESULT:      -5.4      1.736      2.017
REMARK  1 active torsions:
REMARK  status: ('A' for Active; 'I' for Inactive)
REMARK    1  A    between atoms: O_1  and  C_13 
ROOT
ATOM      1  O   UNL d   1       0.514   0.600   8.048  0.00  0.00    -0.298 OA
ATOM      2  C   UNL d   1       5.642  -2.077  10.801  0.00  0.00    -0.005 C 
ATOM      3  C   UNL d   1       4.125  -2.277  11.112  0.00  0.00    -0.002 C 
ATOM      4  C   UNL d   1       6.460  -2.718  11.927  0.00  0.00     0.001 C 
ATOM      5  C   UNL d   1       6.188  -4.227  12.078  0.00  0.00    -0.014 C 
ATOM      6  C   UNL d   1       3.197  -1.601  10.035  0.00  0.00    -0.036 C 
ATOM      7  C   UNL d   1       3.609  -0.101   9.892  0.00  0.00     0.001 C 
ATOM      8  C   UNL d   1       3.783  -3.765  11.404  0.00  0.00     0.007 C 
ATOM      9  C   UNL d   1       4.710  -4.410  12.451  0.00  0.00     0.012 C 
ATOM     10  C   UNL d   1       5.975  -0.587  10.652  0.00  0.00     0.006 C 
ATOM     11  C   UNL d   1       7.984  -2.634  11.882  0.00  0.00     0.008 C 
ATOM     12  C   UNL d   1       7.182  -4.550  13.209  0.00  0.00     0.126 C 
ATOM     13  C   UNL d   1       5.104   0.089   9.600  0.00  0.00     0.006 C 
ATOM     14  C   UNL d   1       8.446  -3.752  12.834  0.00  0.00     0.033 C 
ATOM     15  C   UNL d   1       1.708  -1.665  10.504  0.00  0.00     0.017 C 
ATOM     16  C   UNL d   1       6.513  -5.072  10.819  0.00  0.00     0.018 C 
ATOM     17  C   UNL d   1       3.306  -2.340   8.675  0.00  0.00     0.016 C 
ATOM     18  C   UNL d   1       2.772   0.641   8.839  0.00  0.00     0.083 C 
ATOM     19  C   UNL d   1       0.854  -0.441  10.174  0.00  0.00     0.079 C 
ATOM     20  C   UNL d   1       1.310   0.269   8.927  0.00  0.00     0.127 C 
ENDROOT
BRANCH  12  21
ATOM     21  O   UNL d   1       7.452  -5.934  13.331  0.00  0.00    -0.395 OA
ATOM     22  H   UNL d   1       6.861  -6.423  12.736  0.00  0.00     0.210 HD
ENDBRANCH  12  21
TORSDOF 1
ENDMDL
MODEL 7
REMARK VINA RESULT:      -5.4      8.052     10.890
REMARK  1 active torsions:
REMARK  status: ('A' for Active; 'I' for Inactive)
REMARK    1  A    between atoms: O_1  and  C_13 
ROOT
ATOM      1  O   UNL d   1       1.868  -1.150  -3.105  0.00  0.00    -0.298 OA
ATOM      2  C   UNL d   1       1.593   1.238   2.832  0.00  0.00    -0.005 C 
ATOM      3  C   UNL d   1       1.428   1.961   1.459  0.00  0.00    -0.002 C 
ATOM      4  C   UNL d   1       1.728   2.299   3.929  0.00  0.00     0.001 C 
ATOM      5  C   UNL d   1       0.505   3.232   4.013  0.00  0.00    -0.014 C 
ATOM      6  C   UNL d   1       1.335   0.950   0.256  0.00  0.00    -0.036 C 
ATOM      7  C   UNL d   1       2.569  -0.006   0.310  0.00  0.00     0.001 C 
ATOM      8  C   UNL d   1       0.289   3.018   1.492  0.00  0.00     0.007 C 
ATOM      9  C   UNL d   1       0.392   3.989   2.683  0.00  0.00     0.012 C 
ATOM     10  C   UNL d   1       2.808   0.301   2.812  0.00  0.00     0.006 C 
ATOM     11  C   UNL d   1       1.936   1.854   5.376  0.00  0.00     0.008 C 
ATOM     12  C   UNL d   1       0.932   4.099   5.213  0.00  0.00     0.126 C 
ATOM     13  C   UNL d   1       2.734  -0.702   1.668  0.00  0.00     0.006 C 
ATOM     14  C   UNL d   1       1.542   3.089   6.205  0.00  0.00     0.033 C 
ATOM     15  C   UNL d   1       1.371   1.732  -1.097  0.00  0.00     0.017 C 
ATOM     16  C   UNL d   1      -0.835   2.514   4.317  0.00  0.00     0.018 C 
ATOM     17  C   UNL d   1       0.008   0.148   0.313  0.00  0.00     0.016 C 
ATOM     18  C   UNL d   1       2.555  -1.050  -0.816  0.00  0.00     0.083 C 
ATOM     19  C   UNL d   1       2.142   1.059  -2.233  0.00  0.00     0.079 C 
ATOM     20  C   UNL d   1       2.134  -0.443  -2.133  0.00  0.00     0.127 C 
ENDROOT
BRANCH  12  21
ATOM     21  O   UNL d   1      -0.144   4.815   5.788  0.00  0.00    -0.395 OA
ATOM     22  H   UNL d   1      -0.964   4.579   5.324  0.00  0.00     0.210 HD
ENDBRANCH  12  21
TORSDOF 1
ENDMDL
MODEL 8
REMARK VINA RESULT:      -5.3      3.416      5.686
REMARK  1 active torsions:
REMARK  status: ('A' for Active; 'I' for Inactive)
REMARK    1  A    between atoms: O_1  and  C_13 
ROOT
ATOM      1  O   UNL d   1      -5.226  -0.705  11.751  0.00  0.00    -0.298 OA
ATOM      2  C   UNL d   1       0.673   1.424  10.443  0.00  0.00    -0.005 C 
ATOM      3  C   UNL d   1       0.188  -0.020  10.787  0.00  0.00    -0.002 C 
ATOM      4  C   UNL d   1       2.203   1.451  10.502  0.00  0.00     0.001 C 
ATOM      5  C   UNL d   1       2.858   0.468   9.513  0.00  0.00    -0.014 C 
ATOM      6  C   UNL d   1      -1.382  -0.137  10.805  0.00  0.00    -0.036 C 
ATOM      7  C   UNL d   1      -1.953   0.956  11.765  0.00  0.00     0.001 C 
ATOM      8  C   UNL d   1       0.896  -1.094   9.916  0.00  0.00     0.007 C 
ATOM      9  C   UNL d   1       2.429  -0.954   9.902  0.00  0.00     0.012 C 
ATOM     10  C   UNL d   1       0.061   2.448  11.407  0.00  0.00     0.006 C 
ATOM     11  C   UNL d   1       2.937   2.764  10.236  0.00  0.00     0.008 C 
ATOM     12  C   UNL d   1       4.340   0.790   9.782  0.00  0.00     0.126 C 
ATOM     13  C   UNL d   1      -1.461   2.370  11.430  0.00  0.00     0.006 C 
ATOM     14  C   UNL d   1       4.373   2.326   9.899  0.00  0.00     0.033 C 
ATOM     15  C   UNL d   1      -1.802  -1.542  11.346  0.00  0.00     0.017 C 
ATOM     16  C   UNL d   1       2.513   0.724   8.024  0.00  0.00     0.018 C 
ATOM     17  C   UNL d   1      -1.962   0.022   9.375  0.00  0.00     0.016 C 
ATOM     18  C   UNL d   1      -3.488   0.937  11.830  0.00  0.00     0.083 C 
ATOM     19  C   UNL d   1      -3.048  -1.568  12.231  0.00  0.00     0.079 C 
ATOM     20  C   UNL d   1      -4.026  -0.473  11.895  0.00  0.00     0.127 C 
ENDROOT
BRANCH  12  21
ATOM     21  O   UNL d   1       5.201   0.322   8.762  0.00  0.00    -0.395 OA
ATOM     22  H   UNL d   1       4.825   0.559   7.898  0.00  0.00     0.210 HD
ENDBRANCH  12  21
TORSDOF 1
ENDMDL
MODEL 9
REMARK VINA RESULT:      -5.2      3.081      5.128
REMARK  1 active torsions:
REMARK  status: ('A' for Active; 'I' for Inactive)
REMARK    1  A    between atoms: O_1  and  C_13 
ROOT
ATOM      1  O   UNL d   1      -1.919  -4.677  11.975  0.00  0.00    -0.298 OA
ATOM      2  C   UNL d   1       2.362  -0.251  10.208  0.00  0.00    -0.005 C 
ATOM      3  C   UNL d   1       2.583  -1.621  10.924  0.00  0.00    -0.002 C 
ATOM      4  C   UNL d   1       3.667   0.550  10.275  0.00  0.00     0.001 C 
ATOM      5  C   UNL d   1       4.847  -0.171   9.597  0.00  0.00    -0.014 C 
ATOM      6  C   UNL d   1       1.276  -2.499  10.955  0.00  0.00    -0.036 C 
ATOM      7  C   UNL d   1       0.120  -1.651  11.576  0.00  0.00     0.001 C 
ATOM      8  C   UNL d   1       3.837  -2.364  10.385  0.00  0.00     0.007 C 
ATOM      9  C   UNL d   1       5.100  -1.484  10.351  0.00  0.00     0.012 C 
ATOM     10  C   UNL d   1       1.203   0.520  10.851  0.00  0.00     0.006 C 
ATOM     11  C   UNL d   1       3.712   1.952   9.671  0.00  0.00     0.008 C 
ATOM     12  C   UNL d   1       5.938   0.900   9.786  0.00  0.00     0.126 C 
ATOM     13  C   UNL d   1      -0.081  -0.301  10.876  0.00  0.00     0.006 C 
ATOM     14  C   UNL d   1       5.215   2.227   9.482  0.00  0.00     0.033 C 
ATOM     15  C   UNL d   1       1.506  -3.758  11.851  0.00  0.00     0.017 C 
ATOM     16  C   UNL d   1       4.642  -0.471   8.090  0.00  0.00     0.018 C 
ATOM     17  C   UNL d   1       0.906  -2.984   9.529  0.00  0.00     0.016 C 
ATOM     18  C   UNL d   1      -1.210  -2.419  11.627  0.00  0.00     0.083 C 
ATOM     19  C   UNL d   1       0.311  -4.200  12.696  0.00  0.00     0.079 C 
ATOM     20  C   UNL d   1      -1.010  -3.850  12.064  0.00  0.00     0.127 C 
ENDROOT
BRANCH  12  21
ATOM     21  O   UNL d   1       7.056   0.706   8.940  0.00  0.00    -0.395 OA
ATOM     22  H   UNL d   1       7.863   0.945   9.425  0.00  0.00     0.210 HD
ENDBRANCH  12  21
TORSDOF 1
ENDMDL
