MODEL 1
REMARK VINA RESULT:      -4.1      0.000      0.000
REMARK  12 active torsions:
REMARK  status: ('A' for Active; 'I' for Inactive)
REMARK    1  A    between atoms: P_4  and  O_5 
REMARK    2  A    between atoms: P_4  and  O_6 
REMARK    3  A    between atoms: P_4  and  O_7 
REMARK    4  A    between atoms: O_5  and  C_9 
REMARK    5  A    between atoms: O_6  and  C_10 
REMARK    6  A    between atoms: O_7  and  C_11 
REMARK    7  A    between atoms: C_9  and  C_12 
REMARK    8  A    between atoms: C_10  and  C_13 
REMARK    9  A    between atoms: C_11  and  C_14 
REMARK   10  A    between atoms: C_12  and  C_15 
REMARK   11  A    between atoms: C_13  and  C_16 
REMARK   12  A    between atoms: C_14  and  C_17 
ROOT
ATOM      1  P   UNL d   1       6.765  -1.270   8.545  0.00  0.00     0.477 P 
ATOM      2  O   UNL d   1       5.367  -1.602   8.107  0.00  0.00    -0.227 OA
ENDROOT
BRANCH   1   3
ATOM      3  O   UNL d   1       7.439  -2.373   9.523  0.00  0.00    -0.292 OA
BRANCH   3   4
ATOM      4  C   UNL d   1       6.724  -2.858  10.648  0.00  0.00     0.181 C 
BRANCH   4   5
ATOM      5  C   UNL d   1       7.580  -2.660  11.893  0.00  0.00     0.042 C 
BRANCH   5   6
ATOM      6  C   UNL d   1       8.122  -3.960  12.472  0.00  0.00     0.116 C 
ATOM      7 CL   UNL d   1       9.861  -4.158  12.155  0.00  0.00    -0.130 Cl
ENDBRANCH   5   6
ENDBRANCH   4   5
ENDBRANCH   3   4
ENDBRANCH   1   3
BRANCH   1   8
ATOM      8  O   UNL d   1       6.905   0.127   9.354  0.00  0.00    -0.292 OA
BRANCH   8   9
ATOM      9  C   UNL d   1       5.752   0.666   9.976  0.00  0.00     0.181 C 
BRANCH   9  10
ATOM     10  C   UNL d   1       5.472   2.041   9.381  0.00  0.00     0.042 C 
BRANCH  10  11
ATOM     11  C   UNL d   1       4.020   2.244   8.970  0.00  0.00     0.116 C 
ATOM     12 CL   UNL d   1       3.003   2.742  10.342  0.00  0.00    -0.130 Cl
ENDBRANCH  10  11
ENDBRANCH   9  10
ENDBRANCH   8   9
ENDBRANCH   1   8
BRANCH   1  13
ATOM     13  O   UNL d   1       7.829  -1.098   7.336  0.00  0.00    -0.292 OA
BRANCH  13  14
ATOM     14  C   UNL d   1       8.730  -2.160   7.073  0.00  0.00     0.181 C 
BRANCH  14  15
ATOM     15  C   UNL d   1      10.128  -1.582   6.894  0.00  0.00     0.042 C 
BRANCH  15  16
ATOM     16  C   UNL d   1      11.206  -2.641   6.704  0.00  0.00     0.116 C 
ATOM     17 CL   UNL d   1      11.810  -2.683   5.031  0.00  0.00    -0.130 Cl
ENDBRANCH  15  16
ENDBRANCH  14  15
ENDBRANCH  13  14
ENDBRANCH   1  13
TORSDOF 12
ENDMDL
MODEL 2
REMARK VINA RESULT:      -3.9      1.285      6.057
REMARK  12 active torsions:
REMARK  status: ('A' for Active; 'I' for Inactive)
REMARK    1  A    between atoms: P_4  and  O_5 
REMARK    2  A    between atoms: P_4  and  O_6 
REMARK    3  A    between atoms: P_4  and  O_7 
REMARK    4  A    between atoms: O_5  and  C_9 
REMARK    5  A    between atoms: O_6  and  C_10 
REMARK    6  A    between atoms: O_7  and  C_11 
REMARK    7  A    between atoms: C_9  and  C_12 
REMARK    8  A    between atoms: C_10  and  C_13 
REMARK    9  A    between atoms: C_11  and  C_14 
REMARK   10  A    between atoms: C_12  and  C_15 
REMARK   11  A    between atoms: C_13  and  C_16 
REMARK   12  A    between atoms: C_14  and  C_17 
ROOT
ATOM      1  P   UNL d   1       6.428  -0.992   8.987  0.00  0.00     0.477 P 
ATOM      2  O   UNL d   1       5.532  -1.545   7.916  0.00  0.00    -0.227 OA
ENDROOT
BRANCH   1   3
ATOM      3  O   UNL d   1       5.790   0.244   9.820  0.00  0.00    -0.292 OA
BRANCH   3   4
ATOM      4  C   UNL d   1       4.694   0.969   9.288  0.00  0.00     0.181 C 
BRANCH   4   5
ATOM      5  C   UNL d   1       4.530   2.258  10.084  0.00  0.00     0.042 C 
BRANCH   5   6
ATOM      6  C   UNL d   1       3.095   2.765  10.133  0.00  0.00     0.116 C 
ATOM      7 CL   UNL d   1       2.120   1.891  11.336  0.00  0.00    -0.130 Cl
ENDBRANCH   5   6
ENDBRANCH   4   5
ENDBRANCH   3   4
ENDBRANCH   1   3
BRANCH   1   8
ATOM      8  O   UNL d   1       7.851  -0.430   8.454  0.00  0.00    -0.292 OA
BRANCH   8   9
ATOM      9  C   UNL d   1       8.239  -0.727   7.124  0.00  0.00     0.181 C 
BRANCH   9  10
ATOM     10  C   UNL d   1       9.006  -2.044   7.122  0.00  0.00     0.042 C 
BRANCH  10  11
ATOM     11  C   UNL d   1      10.499  -1.880   6.865  0.00  0.00     0.116 C 
ATOM     12 CL   UNL d   1      10.919  -0.210   6.419  0.00  0.00    -0.130 Cl
ENDBRANCH  10  11
ENDBRANCH   9  10
ENDBRANCH   8   9
ENDBRANCH   1   8
BRANCH   1  13
ATOM     13  O   UNL d   1       6.864  -2.063  10.122  0.00  0.00    -0.292 OA
BRANCH  13  14
ATOM     14  C   UNL d   1       6.390  -1.875  11.445  0.00  0.00     0.181 C 
BRANCH  14  15
ATOM     15  C   UNL d   1       6.730  -3.112  12.266  0.00  0.00     0.042 C 
BRANCH  15  16
ATOM     16  C   UNL d   1       8.127  -3.079  12.871  0.00  0.00     0.116 C 
ATOM     17 CL   UNL d   1       9.291  -4.020  11.911  0.00  0.00    -0.130 Cl
ENDBRANCH  15  16
ENDBRANCH  14  15
ENDBRANCH  13  14
ENDBRANCH   1  13
TORSDOF 12
ENDMDL
MODEL 3
REMARK VINA RESULT:      -3.8      2.046      6.089
REMARK  12 active torsions:
REMARK  status: ('A' for Active; 'I' for Inactive)
REMARK    1  A    between atoms: P_4  and  O_5 
REMARK    2  A    between atoms: P_4  and  O_6 
REMARK    3  A    between atoms: P_4  and  O_7 
REMARK    4  A    between atoms: O_5  and  C_9 
REMARK    5  A    between atoms: O_6  and  C_10 
REMARK    6  A    between atoms: O_7  and  C_11 
REMARK    7  A    between atoms: C_9  and  C_12 
REMARK    8  A    between atoms: C_10  and  C_13 
REMARK    9  A    between atoms: C_11  and  C_14 
REMARK   10  A    between atoms: C_12  and  C_15 
REMARK   11  A    between atoms: C_13  and  C_16 
REMARK   12  A    between atoms: C_14  and  C_17 
ROOT
ATOM      1  P   UNL d   1       7.768  -3.495   8.730  0.00  0.00     0.477 P 
ATOM      2  O   UNL d   1       7.215  -4.854   8.408  0.00  0.00    -0.227 OA
ENDROOT
BRANCH   1   3
ATOM      3  O   UNL d   1       6.645  -2.390   9.114  0.00  0.00    -0.292 OA
BRANCH   3   4
ATOM      4  C   UNL d   1       6.744  -1.667  10.330  0.00  0.00     0.181 C 
BRANCH   4   5
ATOM      5  C   UNL d   1       5.941  -0.379  10.198  0.00  0.00     0.042 C 
BRANCH   5   6
ATOM      6  C   UNL d   1       6.673   0.721   9.442  0.00  0.00     0.116 C 
ATOM      7 CL   UNL d   1       5.724   2.222   9.362  0.00  0.00    -0.130 Cl
ENDBRANCH   5   6
ENDBRANCH   4   5
ENDBRANCH   3   4
ENDBRANCH   1   3
BRANCH   1   8
ATOM      8  O   UNL d   1       8.616  -2.810   7.533  0.00  0.00    -0.292 OA
BRANCH   8   9
ATOM      9  C   UNL d   1       9.185  -3.649   6.542  0.00  0.00     0.181 C 
BRANCH   9  10
ATOM     10  C   UNL d   1      10.527  -3.065   6.118  0.00  0.00     0.042 C 
BRANCH  10  11
ATOM     11  C   UNL d   1      11.081  -2.034   7.094  0.00  0.00     0.116 C 
ATOM     12 CL   UNL d   1      10.967  -0.380   6.451  0.00  0.00    -0.130 Cl
ENDBRANCH  10  11
ENDBRANCH   9  10
ENDBRANCH   8   9
ENDBRANCH   1   8
BRANCH   1  13
ATOM     13  O   UNL d   1       8.806  -3.465   9.974  0.00  0.00    -0.292 OA
BRANCH  13  14
ATOM     14  C   UNL d   1       9.063  -4.674  10.667  0.00  0.00     0.181 C 
BRANCH  14  15
ATOM     15  C   UNL d   1       8.260  -4.676  11.962  0.00  0.00     0.042 C 
BRANCH  15  16
ATOM     16  C   UNL d   1       8.616  -3.532  12.902  0.00  0.00     0.116 C 
ATOM     17 CL   UNL d   1       7.285  -3.149  14.018  0.00  0.00    -0.130 Cl
ENDBRANCH  15  16
ENDBRANCH  14  15
ENDBRANCH  13  14
ENDBRANCH   1  13
TORSDOF 12
ENDMDL
MODEL 4
REMARK VINA RESULT:      -3.8      5.417      7.412
REMARK  12 active torsions:
REMARK  status: ('A' for Active; 'I' for Inactive)
REMARK    1  A    between atoms: P_4  and  O_5 
REMARK    2  A    between atoms: P_4  and  O_6 
REMARK    3  A    between atoms: P_4  and  O_7 
REMARK    4  A    between atoms: O_5  and  C_9 
REMARK    5  A    between atoms: O_6  and  C_10 
REMARK    6  A    between atoms: O_7  and  C_11 
REMARK    7  A    between atoms: C_9  and  C_12 
REMARK    8  A    between atoms: C_10  and  C_13 
REMARK    9  A    between atoms: C_11  and  C_14 
REMARK   10  A    between atoms: C_12  and  C_15 
REMARK   11  A    between atoms: C_13  and  C_16 
REMARK   12  A    between atoms: C_14  and  C_17 
ROOT
ATOM      1  P   UNL d   1       3.926   2.012   9.727  0.00  0.00     0.477 P 
ATOM      2  O   UNL d   1       5.322   2.421  10.102  0.00  0.00    -0.227 OA
ENDROOT
BRANCH   1   3
ATOM      3  O   UNL d   1       3.654   0.416   9.800  0.00  0.00    -0.292 OA
BRANCH   3   4
ATOM      4  C   UNL d   1       4.698  -0.467  10.180  0.00  0.00     0.181 C 
BRANCH   4   5
ATOM      5  C   UNL d   1       4.079  -1.733  10.759  0.00  0.00     0.042 C 
BRANCH   5   6
ATOM      6  C   UNL d   1       2.600  -1.892  10.434  0.00  0.00     0.116 C 
ATOM      7 CL   UNL d   1       1.581  -1.775  11.887  0.00  0.00    -0.130 Cl
ENDBRANCH   5   6
ENDBRANCH   4   5
ENDBRANCH   3   4
ENDBRANCH   1   3
BRANCH   1   8
ATOM      8  O   UNL d   1       3.479   2.431   8.228  0.00  0.00    -0.292 OA
BRANCH   8   9
ATOM      9  C   UNL d   1       2.641   1.548   7.502  0.00  0.00     0.181 C 
BRANCH   9  10
ATOM     10  C   UNL d   1       2.071   2.292   6.300  0.00  0.00     0.042 C 
BRANCH  10  11
ATOM     11  C   UNL d   1       2.316   1.585   4.973  0.00  0.00     0.116 C 
ATOM     12 CL   UNL d   1       1.659   2.503   3.599  0.00  0.00    -0.130 Cl
ENDBRANCH  10  11
ENDBRANCH   9  10
ENDBRANCH   8   9
ENDBRANCH   1   8
BRANCH   1  13
ATOM     13  O   UNL d   1       2.762   2.663  10.648  0.00  0.00    -0.292 OA
BRANCH  13  14
ATOM     14  C   UNL d   1       1.944   1.796  11.415  0.00  0.00     0.181 C 
BRANCH  14  15
ATOM     15  C   UNL d   1       0.485   2.168  11.184  0.00  0.00     0.042 C 
BRANCH  15  16
ATOM     16  C   UNL d   1      -0.088   1.613   9.888  0.00  0.00     0.116 C 
ATOM     17 CL   UNL d   1      -0.571   2.905   8.766  0.00  0.00    -0.130 Cl
ENDBRANCH  15  16
ENDBRANCH  14  15
ENDBRANCH  13  14
ENDBRANCH   1  13
TORSDOF 12
ENDMDL
MODEL 5
REMARK VINA RESULT:      -3.8      1.810      5.193
REMARK  12 active torsions:
REMARK  status: ('A' for Active; 'I' for Inactive)
REMARK    1  A    between atoms: P_4  and  O_5 
REMARK    2  A    between atoms: P_4  and  O_6 
REMARK    3  A    between atoms: P_4  and  O_7 
REMARK    4  A    between atoms: O_5  and  C_9 
REMARK    5  A    between atoms: O_6  and  C_10 
REMARK    6  A    between atoms: O_7  and  C_11 
REMARK    7  A    between atoms: C_9  and  C_12 
REMARK    8  A    between atoms: C_10  and  C_13 
REMARK    9  A    between atoms: C_11  and  C_14 
REMARK   10  A    between atoms: C_12  and  C_15 
REMARK   11  A    between atoms: C_13  and  C_16 
REMARK   12  A    between atoms: C_14  and  C_17 
ROOT
ATOM      1  P   UNL d   1       6.595  -0.347   9.205  0.00  0.00     0.477 P 
ATOM      2  O   UNL d   1       7.425   0.903   9.144  0.00  0.00    -0.227 OA
ENDROOT
BRANCH   1   3
ATOM      3  O   UNL d   1       5.021  -0.121   8.892  0.00  0.00    -0.292 OA
BRANCH   3   4
ATOM      4  C   UNL d   1       4.079  -0.103   9.953  0.00  0.00     0.181 C 
BRANCH   4   5
ATOM      5  C   UNL d   1       3.386   1.254   9.967  0.00  0.00     0.042 C 
BRANCH   5   6
ATOM      6  C   UNL d   1       3.878   2.200   8.881  0.00  0.00     0.116 C 
ATOM      7 CL   UNL d   1       2.730   2.317   7.528  0.00  0.00    -0.130 Cl
ENDBRANCH   5   6
ENDBRANCH   4   5
ENDBRANCH   3   4
ENDBRANCH   1   3
BRANCH   1   8
ATOM      8  O   UNL d   1       6.618  -1.104  10.637  0.00  0.00    -0.292 OA
BRANCH   8   9
ATOM      9  C   UNL d   1       7.060  -2.450  10.683  0.00  0.00     0.181 C 
BRANCH   9  10
ATOM     10  C   UNL d   1       6.567  -3.083  11.978  0.00  0.00     0.042 C 
BRANCH  10  11
ATOM     11  C   UNL d   1       7.670  -3.320  13.001  0.00  0.00     0.116 C 
ATOM     12 CL   UNL d   1       7.060  -3.238  14.670  0.00  0.00    -0.130 Cl
ENDBRANCH  10  11
ENDBRANCH   9  10
ENDBRANCH   8   9
ENDBRANCH   1   8
BRANCH   1  13
ATOM     13  O   UNL d   1       7.050  -1.510   8.173  0.00  0.00    -0.292 OA
BRANCH  13  14
ATOM     14  C   UNL d   1       7.977  -1.182   7.153  0.00  0.00     0.181 C 
BRANCH  14  15
ATOM     15  C   UNL d   1       9.135  -2.170   7.208  0.00  0.00     0.042 C 
BRANCH  15  16
ATOM     16  C   UNL d   1      10.463  -1.581   6.753  0.00  0.00     0.116 C 
ATOM     17 CL   UNL d   1      10.374   0.184   6.552  0.00  0.00    -0.130 Cl
ENDBRANCH  15  16
ENDBRANCH  14  15
ENDBRANCH  13  14
ENDBRANCH   1  13
TORSDOF 12
ENDMDL
MODEL 6
REMARK VINA RESULT:      -3.8      1.096      5.959
REMARK  12 active torsions:
REMARK  status: ('A' for Active; 'I' for Inactive)
REMARK    1  A    between atoms: P_4  and  O_5 
REMARK    2  A    between atoms: P_4  and  O_6 
REMARK    3  A    between atoms: P_4  and  O_7 
REMARK    4  A    between atoms: O_5  and  C_9 
REMARK    5  A    between atoms: O_6  and  C_10 
REMARK    6  A    between atoms: O_7  and  C_11 
REMARK    7  A    between atoms: C_9  and  C_12 
REMARK    8  A    between atoms: C_10  and  C_13 
REMARK    9  A    between atoms: C_11  and  C_14 
REMARK   10  A    between atoms: C_12  and  C_15 
REMARK   11  A    between atoms: C_13  and  C_16 
REMARK   12  A    between atoms: C_14  and  C_17 
ROOT
ATOM      1  P   UNL d   1       6.439  -1.632   8.947  0.00  0.00     0.477 P 
ATOM      2  O   UNL d   1       5.569  -2.768   8.488  0.00  0.00    -0.227 OA
ENDROOT
BRANCH   1   3
ATOM      3  O   UNL d   1       7.797  -1.439   8.082  0.00  0.00    -0.292 OA
BRANCH   3   4
ATOM      4  C   UNL d   1       8.191  -2.428   7.146  0.00  0.00     0.181 C 
BRANCH   4   5
ATOM      5  C   UNL d   1       9.704  -2.368   6.979  0.00  0.00     0.042 C 
BRANCH   5   6
ATOM      6  C   UNL d   1      10.255  -3.421   6.027  0.00  0.00     0.116 C 
ATOM      7 CL   UNL d   1      11.689  -2.842   5.150  0.00  0.00    -0.130 Cl
ENDBRANCH   5   6
ENDBRANCH   4   5
ENDBRANCH   3   4
ENDBRANCH   1   3
BRANCH   1   8
ATOM      8  O   UNL d   1       6.949  -1.747  10.480  0.00  0.00    -0.292 OA
BRANCH   8   9
ATOM      9  C   UNL d   1       6.023  -2.160  11.470  0.00  0.00     0.181 C 
BRANCH   9  10
ATOM     10  C   UNL d   1       6.694  -3.194  12.367  0.00  0.00     0.042 C 
BRANCH  10  11
ATOM     11  C   UNL d   1       8.159  -2.892  12.656  0.00  0.00     0.116 C 
ATOM     12 CL   UNL d   1       9.245  -4.079  11.898  0.00  0.00    -0.130 Cl
ENDBRANCH  10  11
ENDBRANCH   9  10
ENDBRANCH   8   9
ENDBRANCH   1   8
BRANCH   1  13
ATOM     13  O   UNL d   1       5.726  -0.178   8.910  0.00  0.00    -0.292 OA
BRANCH  13  14
ATOM     14  C   UNL d   1       6.439   0.937   9.417  0.00  0.00     0.181 C 
BRANCH  14  15
ATOM     15  C   UNL d   1       5.484   2.118   9.531  0.00  0.00     0.042 C 
BRANCH  15  16
ATOM     16  C   UNL d   1       4.014   1.720   9.495  0.00  0.00     0.116 C 
ATOM     17 CL   UNL d   1       3.198   2.316   8.032  0.00  0.00    -0.130 Cl
ENDBRANCH  15  16
ENDBRANCH  14  15
ENDBRANCH  13  14
ENDBRANCH   1  13
TORSDOF 12
ENDMDL
MODEL 7
REMARK VINA RESULT:      -3.7      4.794      7.260
REMARK  12 active torsions:
REMARK  status: ('A' for Active; 'I' for Inactive)
REMARK    1  A    between atoms: P_4  and  O_5 
REMARK    2  A    between atoms: P_4  and  O_6 
REMARK    3  A    between atoms: P_4  and  O_7 
REMARK    4  A    between atoms: O_5  and  C_9 
REMARK    5  A    between atoms: O_6  and  C_10 
REMARK    6  A    between atoms: O_7  and  C_11 
REMARK    7  A    between atoms: C_9  and  C_12 
REMARK    8  A    between atoms: C_10  and  C_13 
REMARK    9  A    between atoms: C_11  and  C_14 
REMARK   10  A    between atoms: C_12  and  C_15 
REMARK   11  A    between atoms: C_13  and  C_16 
REMARK   12  A    between atoms: C_14  and  C_17 
ROOT
ATOM      1  P   UNL d   1       3.784   2.075   9.749  0.00  0.00     0.477 P 
ATOM      2  O   UNL d   1       5.178   2.374  10.221  0.00  0.00    -0.227 OA
ENDROOT
BRANCH   1   3
ATOM      3  O   UNL d   1       3.496   2.489   8.208  0.00  0.00    -0.292 OA
BRANCH   3   4
ATOM      4  C   UNL d   1       2.625   1.703   7.411  0.00  0.00     0.181 C 
BRANCH   4   5
ATOM      5  C   UNL d   1       1.448   2.568   6.977  0.00  0.00     0.042 C 
BRANCH   5   6
ATOM      6  C   UNL d   1       1.725   3.388   5.725  0.00  0.00     0.116 C 
ATOM      7 CL   UNL d   1       2.109   2.361   4.325  0.00  0.00    -0.130 Cl
ENDBRANCH   5   6
ENDBRANCH   4   5
ENDBRANCH   3   4
ENDBRANCH   1   3
BRANCH   1   8
ATOM      8  O   UNL d   1       2.613   2.814  10.591  0.00  0.00    -0.292 OA
BRANCH   8   9
ATOM      9  C   UNL d   1       1.639   2.013  11.238  0.00  0.00     0.181 C 
BRANCH   9  10
ATOM     10  C   UNL d   1       0.288   2.258  10.577  0.00  0.00     0.042 C 
BRANCH  10  11
ATOM     11  C   UNL d   1      -0.304   1.018   9.918  0.00  0.00     0.116 C 
ATOM     12 CL   UNL d   1      -1.181  -0.000  11.083  0.00  0.00    -0.130 Cl
ENDBRANCH  10  11
ENDBRANCH   9  10
ENDBRANCH   8   9
ENDBRANCH   1   8
BRANCH   1  13
ATOM     13  O   UNL d   1       3.362   0.513   9.835  0.00  0.00    -0.292 OA
BRANCH  13  14
ATOM     14  C   UNL d   1       4.380  -0.450  10.045  0.00  0.00     0.181 C 
BRANCH  14  15
ATOM     15  C   UNL d   1       3.750  -1.708  10.628  0.00  0.00     0.042 C 
BRANCH  15  16
ATOM     16  C   UNL d   1       4.765  -2.705  11.170  0.00  0.00     0.116 C 
ATOM     17 CL   UNL d   1       6.308  -1.925  11.587  0.00  0.00    -0.130 Cl
ENDBRANCH  15  16
ENDBRANCH  14  15
ENDBRANCH  13  14
ENDBRANCH   1  13
TORSDOF 12
ENDMDL
MODEL 8
REMARK VINA RESULT:      -3.7     14.804     16.521
REMARK  12 active torsions:
REMARK  status: ('A' for Active; 'I' for Inactive)
REMARK    1  A    between atoms: P_4  and  O_5 
REMARK    2  A    between atoms: P_4  and  O_6 
REMARK    3  A    between atoms: P_4  and  O_7 
REMARK    4  A    between atoms: O_5  and  C_9 
REMARK    5  A    between atoms: O_6  and  C_10 
REMARK    6  A    between atoms: O_7  and  C_11 
REMARK    7  A    between atoms: C_9  and  C_12 
REMARK    8  A    between atoms: C_10  and  C_13 
REMARK    9  A    between atoms: C_11  and  C_14 
REMARK   10  A    between atoms: C_12  and  C_15 
REMARK   11  A    between atoms: C_13  and  C_16 
REMARK   12  A    between atoms: C_14  and  C_17 
ROOT
ATOM      1  P   UNL d   1       7.327   6.441  -5.507  0.00  0.00     0.477 P 
ATOM      2  O   UNL d   1       7.917   7.259  -6.621  0.00  0.00    -0.227 OA
ENDROOT
BRANCH   1   3
ATOM      3  O   UNL d   1       6.990   7.284  -4.165  0.00  0.00    -0.292 OA
BRANCH   3   4
ATOM      4  C   UNL d   1       7.557   6.902  -2.923  0.00  0.00     0.181 C 
BRANCH   4   5
ATOM      5  C   UNL d   1       6.429   6.590  -1.946  0.00  0.00     0.042 C 
BRANCH   5   6
ATOM      6  C   UNL d   1       5.810   7.829  -1.315  0.00  0.00     0.116 C 
ATOM      7 CL   UNL d   1       4.179   8.154  -1.942  0.00  0.00    -0.130 Cl
ENDBRANCH   5   6
ENDBRANCH   4   5
ENDBRANCH   3   4
ENDBRANCH   1   3
BRANCH   1   8
ATOM      8  O   UNL d   1       8.263   5.223  -4.995  0.00  0.00    -0.292 OA
BRANCH   8   9
ATOM      9  C   UNL d   1       9.555   5.080  -5.561  0.00  0.00     0.181 C 
BRANCH   9  10
ATOM     10  C   UNL d   1       9.976   3.619  -5.455  0.00  0.00     0.042 C 
BRANCH  10  11
ATOM     11  C   UNL d   1      10.971   3.191  -6.527  0.00  0.00     0.116 C 
ATOM     12 CL   UNL d   1      10.737   1.498  -7.015  0.00  0.00    -0.130 Cl
ENDBRANCH  10  11
ENDBRANCH   9  10
ENDBRANCH   8   9
ENDBRANCH   1   8
BRANCH   1  13
ATOM     13  O   UNL d   1       5.936   5.698  -5.879  0.00  0.00    -0.292 OA
BRANCH  13  14
ATOM     14  C   UNL d   1       5.669   4.434  -5.296  0.00  0.00     0.181 C 
BRANCH  14  15
ATOM     15  C   UNL d   1       4.521   4.585  -4.306  0.00  0.00     0.042 C 
BRANCH  15  16
ATOM     16  C   UNL d   1       3.587   5.745  -4.627  0.00  0.00     0.116 C 
ATOM     17 CL   UNL d   1       2.142   5.743  -3.590  0.00  0.00    -0.130 Cl
ENDBRANCH  15  16
ENDBRANCH  14  15
ENDBRANCH  13  14
ENDBRANCH   1  13
TORSDOF 12
ENDMDL
MODEL 9
REMARK VINA RESULT:      -3.7      1.987      6.373
REMARK  12 active torsions:
REMARK  status: ('A' for Active; 'I' for Inactive)
REMARK    1  A    between atoms: P_4  and  O_5 
REMARK    2  A    between atoms: P_4  and  O_6 
REMARK    3  A    between atoms: P_4  and  O_7 
REMARK    4  A    between atoms: O_5  and  C_9 
REMARK    5  A    between atoms: O_6  and  C_10 
REMARK    6  A    between atoms: O_7  and  C_11 
REMARK    7  A    between atoms: C_9  and  C_12 
REMARK    8  A    between atoms: C_10  and  C_13 
REMARK    9  A    between atoms: C_11  and  C_14 
REMARK   10  A    between atoms: C_12  and  C_15 
REMARK   11  A    between atoms: C_13  and  C_16 
REMARK   12  A    between atoms: C_14  and  C_17 
ROOT
ATOM      1  P   UNL d   1       5.231  -0.800   9.899  0.00  0.00     0.477 P 
ATOM      2  O   UNL d   1       3.981  -1.532  10.298  0.00  0.00    -0.227 OA
ENDROOT
BRANCH   1   3
ATOM      3  O   UNL d   1       5.740  -1.118   8.393  0.00  0.00    -0.292 OA
BRANCH   3   4
ATOM      4  C   UNL d   1       7.125  -1.274   8.129  0.00  0.00     0.181 C 
BRANCH   4   5
ATOM      5  C   UNL d   1       7.410  -2.750   7.878  0.00  0.00     0.042 C 
BRANCH   5   6
ATOM      6  C   UNL d   1       8.895  -3.084   7.831  0.00  0.00     0.116 C 
ATOM      7 CL   UNL d   1       9.821  -1.878   6.908  0.00  0.00    -0.130 Cl
ENDBRANCH   5   6
ENDBRANCH   4   5
ENDBRANCH   3   4
ENDBRANCH   1   3
BRANCH   1   8
ATOM      8  O   UNL d   1       6.519  -1.103  10.834  0.00  0.00    -0.292 OA
BRANCH   8   9
ATOM      9  C   UNL d   1       6.465  -2.209  11.718  0.00  0.00     0.181 C 
BRANCH   9  10
ATOM     10  C   UNL d   1       7.776  -2.980  11.616  0.00  0.00     0.042 C 
BRANCH  10  11
ATOM     11  C   UNL d   1       8.361  -3.371  12.967  0.00  0.00     0.116 C 
ATOM     12 CL   UNL d   1       7.147  -3.300  14.265  0.00  0.00    -0.130 Cl
ENDBRANCH  10  11
ENDBRANCH   9  10
ENDBRANCH   8   9
ENDBRANCH   1   8
BRANCH   1  13
ATOM     13  O   UNL d   1       5.114   0.815   9.954  0.00  0.00    -0.292 OA
BRANCH  13  14
ATOM     14  C   UNL d   1       4.062   1.441   9.240  0.00  0.00     0.181 C 
BRANCH  14  15
ATOM     15  C   UNL d   1       3.557   2.626  10.052  0.00  0.00     0.042 C 
BRANCH  15  16
ATOM     16  C   UNL d   1       2.096   2.505  10.465  0.00  0.00     0.116 C 
ATOM     17 CL   UNL d   1       1.783   1.007  11.373  0.00  0.00    -0.130 Cl
ENDBRANCH  15  16
ENDBRANCH  14  15
ENDBRANCH  13  14
ENDBRANCH   1  13
TORSDOF 12
ENDMDL
