MODEL 1
REMARK VINA RESULT:      -5.3      0.000      0.000
REMARK  3 active torsions:
REMARK  status: ('A' for Active; 'I' for Inactive)
REMARK    1  A    between atoms: C_11  and  C_12 
REMARK    2  A    between atoms: C_11  and  C_13 
REMARK    3  A    between atoms: C_12  and  C_14 
ROOT
ATOM      1  C   UNL d   1       0.744  -0.079   9.324  0.00  0.00     0.045 C 
ENDROOT
BRANCH   1   2
ATOM      2  C   UNL d   1       1.667   0.416  10.449  0.00  0.00     0.045 C 
BRANCH   2   3
ATOM      3  C   UNL d   1       3.004  -0.284  10.478  0.00  0.00    -0.020 A 
ATOM      4  C   UNL d   1       3.098  -1.572  10.993  0.00  0.00     0.037 A 
ATOM      5 BR   UNL d   1       1.499  -2.406  11.648  0.00  0.00    -0.049 Br
ATOM      6  C   UNL d   1       4.333  -2.218  11.021  0.00  0.00     0.047 A 
ATOM      7 BR   UNL d   1       4.455  -3.998  11.739  0.00  0.00    -0.048 Br
ATOM      8  C   UNL d   1       5.470  -1.572  10.534  0.00  0.00     0.048 A 
ATOM      9 BR   UNL d   1       7.175  -2.463  10.573  0.00  0.00    -0.048 Br
ATOM     10  C   UNL d   1       5.369  -0.279  10.019  0.00  0.00     0.047 A 
ATOM     11 BR   UNL d   1       6.926   0.626   9.340  0.00  0.00    -0.048 Br
ATOM     12  C   UNL d   1       4.133   0.367   9.992  0.00  0.00     0.037 A 
ATOM     13 BR   UNL d   1       3.930   2.143   9.298  0.00  0.00    -0.049 Br
ENDBRANCH   2   3
ENDBRANCH   1   2
BRANCH   1  14
ATOM     14  C   UNL d   1       0.738   0.808   8.113  0.00  0.00    -0.020 A 
ATOM     15  C   UNL d   1       1.485   0.459   6.988  0.00  0.00     0.037 A 
ATOM     16 BR   UNL d   1       2.498  -1.168   7.051  0.00  0.00    -0.049 Br
ATOM     17  C   UNL d   1       1.481   1.285   5.864  0.00  0.00     0.047 A 
ATOM     18 BR   UNL d   1       2.521   0.790   4.323  0.00  0.00    -0.048 Br
ATOM     19  C   UNL d   1       0.730   2.460   5.864  0.00  0.00     0.048 A 
ATOM     20 BR   UNL d   1       0.724   3.600   4.312  0.00  0.00    -0.048 Br
ATOM     21  C   UNL d   1      -0.017   2.810   6.989  0.00  0.00     0.047 A 
ATOM     22 BR   UNL d   1      -1.062   4.425   7.006  0.00  0.00    -0.048 Br
ATOM     23  C   UNL d   1      -0.013   1.983   8.113  0.00  0.00     0.037 A 
ATOM     24 BR   UNL d   1      -1.017   2.409   9.691  0.00  0.00    -0.049 Br
ENDBRANCH   1  14
TORSDOF 3
ENDMDL
MODEL 2
REMARK VINA RESULT:      -5.3      0.081      6.785
REMARK  3 active torsions:
REMARK  status: ('A' for Active; 'I' for Inactive)
REMARK    1  A    between atoms: C_11  and  C_12 
REMARK    2  A    between atoms: C_11  and  C_13 
REMARK    3  A    between atoms: C_12  and  C_14 
ROOT
ATOM      1  C   UNL d   1       1.641   0.426  10.385  0.00  0.00     0.045 C 
ENDROOT
BRANCH   1   2
ATOM      2  C   UNL d   1       0.722  -0.071   9.257  0.00  0.00     0.045 C 
BRANCH   2   3
ATOM      3  C   UNL d   1       0.700   0.843   8.056  0.00  0.00    -0.020 A 
ATOM      4  C   UNL d   1       1.459   0.527   6.935  0.00  0.00     0.037 A 
ATOM      5 BR   UNL d   1       2.508  -1.079   6.972  0.00  0.00    -0.049 Br
ATOM      6  C   UNL d   1       1.441   1.372   5.826  0.00  0.00     0.047 A 
ATOM      7 BR   UNL d   1       2.498   0.929   4.281  0.00  0.00    -0.048 Br
ATOM      8  C   UNL d   1       0.664   2.530   5.844  0.00  0.00     0.048 A 
ATOM      9 BR   UNL d   1       0.638   3.697   4.314  0.00  0.00    -0.048 Br
ATOM     10  C   UNL d   1      -0.095   2.842   6.973  0.00  0.00     0.047 A 
ATOM     11 BR   UNL d   1      -1.176   4.434   7.014  0.00  0.00    -0.048 Br
ATOM     12  C   UNL d   1      -0.076   1.996   8.082  0.00  0.00     0.037 A 
ATOM     13 BR   UNL d   1      -1.096   2.370   9.662  0.00  0.00    -0.049 Br
ENDBRANCH   2   3
ENDBRANCH   1   2
BRANCH   1  14
ATOM     14  C   UNL d   1       2.969  -0.274  10.435  0.00  0.00    -0.020 A 
ATOM     15  C   UNL d   1       3.058  -1.562  10.960  0.00  0.00     0.037 A 
ATOM     16 BR   UNL d   1       1.450  -2.386  11.603  0.00  0.00    -0.049 Br
ATOM     17  C   UNL d   1       4.292  -2.212  11.009  0.00  0.00     0.047 A 
ATOM     18 BR   UNL d   1       4.399  -3.988  11.743  0.00  0.00    -0.048 Br
ATOM     19  C   UNL d   1       5.436  -1.574  10.532  0.00  0.00     0.048 A 
ATOM     20 BR   UNL d   1       7.139  -2.470  10.599  0.00  0.00    -0.048 Br
ATOM     21  C   UNL d   1       5.347  -0.284  10.006  0.00  0.00     0.047 A 
ATOM     22 BR   UNL d   1       6.914   0.611   9.339  0.00  0.00    -0.048 Br
ATOM     23  C   UNL d   1       4.113   0.365   9.957  0.00  0.00     0.037 A 
ATOM     24 BR   UNL d   1       3.924   2.137   9.248  0.00  0.00    -0.049 Br
ENDBRANCH   1  14
TORSDOF 3
ENDMDL
MODEL 3
REMARK VINA RESULT:      -5.3      0.077      2.535
REMARK  3 active torsions:
REMARK  status: ('A' for Active; 'I' for Inactive)
REMARK    1  A    between atoms: C_11  and  C_12 
REMARK    2  A    between atoms: C_11  and  C_13 
REMARK    3  A    between atoms: C_12  and  C_14 
ROOT
ATOM      1  C   UNL d   1       0.672  -0.104   9.337  0.00  0.00     0.045 C 
ENDROOT
BRANCH   1   2
ATOM      2  C   UNL d   1       1.592   0.398  10.462  0.00  0.00     0.045 C 
BRANCH   2   3
ATOM      3  C   UNL d   1       2.932  -0.296  10.493  0.00  0.00    -0.020 A 
ATOM      4  C   UNL d   1       4.061   0.362  10.016  0.00  0.00     0.037 A 
ATOM      5 BR   UNL d   1       3.853   2.143   9.335  0.00  0.00    -0.049 Br
ATOM      6  C   UNL d   1       5.298  -0.279  10.043  0.00  0.00     0.047 A 
ATOM      7 BR   UNL d   1       6.854   0.636   9.377  0.00  0.00    -0.048 Br
ATOM      8  C   UNL d   1       5.402  -1.576  10.547  0.00  0.00     0.048 A 
ATOM      9 BR   UNL d   1       7.110  -2.461  10.585  0.00  0.00    -0.048 Br
ATOM     10  C   UNL d   1       4.265  -2.231  11.024  0.00  0.00     0.047 A 
ATOM     11 BR   UNL d   1       4.390  -4.018  11.725  0.00  0.00    -0.048 Br
ATOM     12  C   UNL d   1       3.028  -1.589  10.996  0.00  0.00     0.037 A 
ATOM     13 BR   UNL d   1       1.430  -2.435  11.636  0.00  0.00    -0.049 Br
ENDBRANCH   2   3
ENDBRANCH   1   2
BRANCH   1  14
ATOM     14  C   UNL d   1       0.677   0.771   8.117  0.00  0.00    -0.020 A 
ATOM     15  C   UNL d   1       1.434   0.410   7.003  0.00  0.00     0.037 A 
ATOM     16 BR   UNL d   1       2.447  -1.216   7.092  0.00  0.00    -0.049 Br
ATOM     17  C   UNL d   1       1.440   1.223   5.869  0.00  0.00     0.047 A 
ATOM     18 BR   UNL d   1       2.495   0.713   4.343  0.00  0.00    -0.048 Br
ATOM     19  C   UNL d   1       0.689   2.398   5.850  0.00  0.00     0.048 A 
ATOM     20 BR   UNL d   1       0.698   3.521   4.286  0.00  0.00    -0.048 Br
ATOM     21  C   UNL d   1      -0.068   2.760   6.965  0.00  0.00     0.047 A 
ATOM     22 BR   UNL d   1      -1.113   4.375   6.954  0.00  0.00    -0.048 Br
ATOM     23  C   UNL d   1      -0.074   1.946   8.097  0.00  0.00     0.037 A 
ATOM     24 BR   UNL d   1      -1.093   2.388   9.661  0.00  0.00    -0.049 Br
ENDBRANCH   1  14
TORSDOF 3
ENDMDL
MODEL 4
REMARK VINA RESULT:      -5.3      0.168      3.585
REMARK  3 active torsions:
REMARK  status: ('A' for Active; 'I' for Inactive)
REMARK    1  A    between atoms: C_11  and  C_12 
REMARK    2  A    between atoms: C_11  and  C_13 
REMARK    3  A    between atoms: C_12  and  C_14 
ROOT
ATOM      1  C   UNL d   1       0.609  -0.122   9.399  0.00  0.00     0.045 C 
ENDROOT
BRANCH   1   2
ATOM      2  C   UNL d   1       1.529   0.363  10.532  0.00  0.00     0.045 C 
BRANCH   2   3
ATOM      3  C   UNL d   1       2.878  -0.313  10.539  0.00  0.00    -0.020 A 
ATOM      4  C   UNL d   1       3.992   0.366  10.055  0.00  0.00     0.037 A 
ATOM      5 BR   UNL d   1       3.751   2.152   9.398  0.00  0.00    -0.049 Br
ATOM      6  C   UNL d   1       5.238  -0.259  10.060  0.00  0.00     0.047 A 
ATOM      7 BR   UNL d   1       6.772   0.686   9.385  0.00  0.00    -0.048 Br
ATOM      8  C   UNL d   1       5.365  -1.559  10.547  0.00  0.00     0.048 A 
ATOM      9 BR   UNL d   1       7.086  -2.422  10.553  0.00  0.00    -0.048 Br
ATOM     10  C   UNL d   1       4.244  -2.235  11.030  0.00  0.00     0.047 A 
ATOM     11 BR   UNL d   1       4.402  -4.029  11.709  0.00  0.00    -0.048 Br
ATOM     12  C   UNL d   1       2.997  -1.610  11.025  0.00  0.00     0.037 A 
ATOM     13 BR   UNL d   1       1.419  -2.485  11.675  0.00  0.00    -0.049 Br
ENDBRANCH   2   3
ENDBRANCH   1   2
BRANCH   1  14
ATOM     14  C   UNL d   1       0.676   0.726   8.162  0.00  0.00    -0.020 A 
ATOM     15  C   UNL d   1      -0.011   1.939   8.110  0.00  0.00     0.037 A 
ATOM     16 BR   UNL d   1      -1.022   2.467   9.651  0.00  0.00    -0.049 Br
ATOM     17  C   UNL d   1       0.049   2.726   6.960  0.00  0.00     0.047 A 
ATOM     18 BR   UNL d   1      -0.909   4.394   6.903  0.00  0.00    -0.048 Br
ATOM     19  C   UNL d   1       0.797   2.302   5.862  0.00  0.00     0.048 A 
ATOM     20 BR   UNL d   1       0.880   3.388   4.275  0.00  0.00    -0.048 Br
ATOM     21  C   UNL d   1       1.484   1.088   5.913  0.00  0.00     0.047 A 
ATOM     22 BR   UNL d   1       2.523   0.488   4.410  0.00  0.00    -0.048 Br
ATOM     23  C   UNL d   1       1.424   0.302   7.064  0.00  0.00     0.037 A 
ATOM     24 BR   UNL d   1       2.345  -1.376   7.197  0.00  0.00    -0.049 Br
ENDBRANCH   1  14
TORSDOF 3
ENDMDL
MODEL 5
REMARK VINA RESULT:      -5.3      0.415      6.859
REMARK  3 active torsions:
REMARK  status: ('A' for Active; 'I' for Inactive)
REMARK    1  A    between atoms: C_11  and  C_12 
REMARK    2  A    between atoms: C_11  and  C_13 
REMARK    3  A    between atoms: C_12  and  C_14 
ROOT
ATOM      1  C   UNL d   1       1.478   0.598  10.266  0.00  0.00     0.045 C 
ENDROOT
BRANCH   1   2
ATOM      2  C   UNL d   1       0.588   0.116   9.110  0.00  0.00     0.045 C 
BRANCH   2   3
ATOM      3  C   UNL d   1       0.521   1.091   7.960  0.00  0.00    -0.020 A 
ATOM      4  C   UNL d   1      -0.317   2.198   8.042  0.00  0.00     0.037 A 
ATOM      5 BR   UNL d   1      -1.356   2.432   9.638  0.00  0.00    -0.049 Br
ATOM      6  C   UNL d   1      -0.381   3.098   6.980  0.00  0.00     0.047 A 
ATOM      7 BR   UNL d   1      -1.546   4.624   7.101  0.00  0.00    -0.048 Br
ATOM      8  C   UNL d   1       0.393   2.887   5.838  0.00  0.00     0.048 A 
ATOM      9 BR   UNL d   1       0.305   4.129   4.371  0.00  0.00    -0.048 Br
ATOM     10  C   UNL d   1       1.231   1.773   5.761  0.00  0.00     0.047 A 
ATOM     11 BR   UNL d   1       2.307   1.468   4.196  0.00  0.00    -0.048 Br
ATOM     12  C   UNL d   1       1.294   0.873   6.825  0.00  0.00     0.037 A 
ATOM     13 BR   UNL d   1       2.425  -0.675   6.779  0.00  0.00    -0.049 Br
ENDBRANCH   2   3
ENDBRANCH   1   2
BRANCH   1  14
ATOM     14  C   UNL d   1       2.795  -0.118  10.355  0.00  0.00    -0.020 A 
ATOM     15  C   UNL d   1       3.959   0.504   9.904  0.00  0.00     0.037 A 
ATOM     16 BR   UNL d   1       3.811   2.275   9.182  0.00  0.00    -0.049 Br
ATOM     17  C   UNL d   1       5.182  -0.162   9.984  0.00  0.00     0.047 A 
ATOM     18 BR   UNL d   1       6.777   0.709   9.352  0.00  0.00    -0.048 Br
ATOM     19  C   UNL d   1       5.242  -1.450  10.516  0.00  0.00     0.048 A 
ATOM     20 BR   UNL d   1       6.930  -2.369  10.627  0.00  0.00    -0.048 Br
ATOM     21  C   UNL d   1       4.077  -2.073  10.967  0.00  0.00     0.047 A 
ATOM     22 BR   UNL d   1       4.141  -3.848  11.706  0.00  0.00    -0.048 Br
ATOM     23  C   UNL d   1       2.854  -1.406  10.886  0.00  0.00     0.037 A 
ATOM     24 BR   UNL d   1       1.219  -2.208  11.488  0.00  0.00    -0.049 Br
ENDBRANCH   1  14
TORSDOF 3
ENDMDL
MODEL 6
REMARK VINA RESULT:      -5.3      0.660      2.584
REMARK  3 active torsions:
REMARK  status: ('A' for Active; 'I' for Inactive)
REMARK    1  A    between atoms: C_11  and  C_12 
REMARK    2  A    between atoms: C_11  and  C_13 
REMARK    3  A    between atoms: C_12  and  C_14 
ROOT
ATOM      1  C   UNL d   1       0.655  -0.188   9.293  0.00  0.00     0.045 C 
ENDROOT
BRANCH   1   2
ATOM      2  C   UNL d   1       1.569   0.360  10.401  0.00  0.00     0.045 C 
BRANCH   2   3
ATOM      3  C   UNL d   1       2.916  -0.320  10.456  0.00  0.00    -0.020 A 
ATOM      4  C   UNL d   1       3.021  -1.600  10.990  0.00  0.00     0.037 A 
ATOM      5 BR   UNL d   1       1.426  -2.448  11.636  0.00  0.00    -0.049 Br
ATOM      6  C   UNL d   1       4.265  -2.227  11.043  0.00  0.00     0.047 A 
ATOM      7 BR   UNL d   1       4.402  -3.996  11.787  0.00  0.00    -0.048 Br
ATOM      8  C   UNL d   1       5.399  -1.571  10.562  0.00  0.00     0.048 A 
ATOM      9 BR   UNL d   1       7.116  -2.437  10.635  0.00  0.00    -0.048 Br
ATOM     10  C   UNL d   1       5.286  -0.287  10.028  0.00  0.00     0.047 A 
ATOM     11 BR   UNL d   1       6.839   0.631   9.357  0.00  0.00    -0.048 Br
ATOM     12  C   UNL d   1       4.041   0.340   9.975  0.00  0.00     0.037 A 
ATOM     13 BR   UNL d   1       3.822   2.104   9.254  0.00  0.00    -0.049 Br
ENDBRANCH   2   3
ENDBRANCH   1   2
BRANCH   1  14
ATOM     14  C   UNL d   1       0.880   0.450   7.953  0.00  0.00    -0.020 A 
ATOM     15  C   UNL d   1       0.381   1.727   7.696  0.00  0.00     0.037 A 
ATOM     16 BR   UNL d   1      -0.586   2.613   9.095  0.00  0.00    -0.049 Br
ATOM     17  C   UNL d   1       0.587   2.320   6.450  0.00  0.00     0.047 A 
ATOM     18 BR   UNL d   1      -0.114   4.079   6.111  0.00  0.00    -0.048 Br
ATOM     19  C   UNL d   1       1.295   1.637   5.461  0.00  0.00     0.048 A 
ATOM     20 BR   UNL d   1       1.581   2.455   3.742  0.00  0.00    -0.048 Br
ATOM     21  C   UNL d   1       1.795   0.359   5.718  0.00  0.00     0.047 A 
ATOM     22 BR   UNL d   1       2.777  -0.596   4.367  0.00  0.00    -0.048 Br
ATOM     23  C   UNL d   1       1.588  -0.233   6.964  0.00  0.00     0.037 A 
ATOM     24 BR   UNL d   1       2.249  -1.985   7.379  0.00  0.00    -0.049 Br
ENDBRANCH   1  14
TORSDOF 3
ENDMDL
MODEL 7
REMARK VINA RESULT:      -5.2      0.479      6.690
REMARK  3 active torsions:
REMARK  status: ('A' for Active; 'I' for Inactive)
REMARK    1  A    between atoms: C_11  and  C_12 
REMARK    2  A    between atoms: C_11  and  C_13 
REMARK    3  A    between atoms: C_12  and  C_14 
ROOT
ATOM      1  C   UNL d   1       1.550   0.345  10.451  0.00  0.00     0.045 C 
ENDROOT
BRANCH   1   2
ATOM      2  C   UNL d   1       0.620  -0.190   9.349  0.00  0.00     0.045 C 
BRANCH   2   3
ATOM      3  C   UNL d   1       0.772   0.533   8.034  0.00  0.00    -0.020 A 
ATOM      4  C   UNL d   1       0.185   1.782   7.862  0.00  0.00     0.037 A 
ATOM      5 BR   UNL d   1      -0.801   2.531   9.328  0.00  0.00    -0.049 Br
ATOM      6  C   UNL d   1       0.323   2.451   6.647  0.00  0.00     0.047 A 
ATOM      7 BR   UNL d   1      -0.497   4.176   6.416  0.00  0.00    -0.048 Br
ATOM      8  C   UNL d   1       1.049   1.867   5.608  0.00  0.00     0.048 A 
ATOM      9 BR   UNL d   1       1.241   2.789   3.930  0.00  0.00    -0.048 Br
ATOM     10  C   UNL d   1       1.636   0.613   5.787  0.00  0.00     0.047 A 
ATOM     11 BR   UNL d   1       2.643  -0.205   4.366  0.00  0.00    -0.048 Br
ATOM     12  C   UNL d   1       1.496  -0.055   7.003  0.00  0.00     0.037 A 
ATOM     13 BR   UNL d   1       2.278  -1.779   7.310  0.00  0.00    -0.049 Br
ENDBRANCH   2   3
ENDBRANCH   1   2
BRANCH   1  14
ATOM     14  C   UNL d   1       2.891  -0.329  10.489  0.00  0.00    -0.020 A 
ATOM     15  C   UNL d   1       3.010  -1.618  11.008  0.00  0.00     0.037 A 
ATOM     16 BR   UNL d   1       1.423  -2.476  11.658  0.00  0.00    -0.049 Br
ATOM     17  C   UNL d   1       4.257  -2.243  11.046  0.00  0.00     0.047 A 
ATOM     18 BR   UNL d   1       4.403  -4.019  11.771  0.00  0.00    -0.048 Br
ATOM     19  C   UNL d   1       5.384  -1.580  10.563  0.00  0.00     0.048 A 
ATOM     20 BR   UNL d   1       7.105  -2.443  10.614  0.00  0.00    -0.048 Br
ATOM     21  C   UNL d   1       5.266  -0.290  10.044  0.00  0.00     0.047 A 
ATOM     22 BR   UNL d   1       6.811   0.638   9.370  0.00  0.00    -0.048 Br
ATOM     23  C   UNL d   1       4.019   0.334  10.006  0.00  0.00     0.037 A 
ATOM     24 BR   UNL d   1       3.790   2.106   9.306  0.00  0.00    -0.049 Br
ENDBRANCH   1  14
TORSDOF 3
ENDMDL
MODEL 8
REMARK VINA RESULT:      -5.2      3.146      5.619
REMARK  3 active torsions:
REMARK  status: ('A' for Active; 'I' for Inactive)
REMARK    1  A    between atoms: C_11  and  C_12 
REMARK    2  A    between atoms: C_11  and  C_13 
REMARK    3  A    between atoms: C_12  and  C_14 
ROOT
ATOM      1  C   UNL d   1       2.289   1.557   5.494  0.00  0.00     0.045 C 
ENDROOT
BRANCH   1   2
ATOM      2  C   UNL d   1       1.481   0.447   6.186  0.00  0.00     0.045 C 
BRANCH   2   3
ATOM      3  C   UNL d   1       0.736   0.923   7.409  0.00  0.00    -0.020 A 
ATOM      4  C   UNL d   1       1.423   1.112   8.604  0.00  0.00     0.037 A 
ATOM      5 BR   UNL d   1       3.308   0.756   8.633  0.00  0.00    -0.049 Br
ATOM      6  C   UNL d   1       0.736   1.550   9.735  0.00  0.00     0.047 A 
ATOM      7 BR   UNL d   1       1.693   1.805  11.385  0.00  0.00    -0.048 Br
ATOM      8  C   UNL d   1      -0.635   1.796   9.667  0.00  0.00     0.048 A 
ATOM      9 BR   UNL d   1      -1.585   2.400  11.229  0.00  0.00    -0.048 Br
ATOM     10  C   UNL d   1      -1.319   1.604   8.466  0.00  0.00     0.047 A 
ATOM     11 BR   UNL d   1      -3.210   1.941   8.353  0.00  0.00    -0.048 Br
ATOM     12  C   UNL d   1      -0.631   1.165   7.334  0.00  0.00     0.037 A 
ATOM     13 BR   UNL d   1      -1.513   0.882   5.655  0.00  0.00    -0.049 Br
ENDBRANCH   2   3
ENDBRANCH   1   2
BRANCH   1  14
ATOM     14  C   UNL d   1       1.846   1.841   4.088  0.00  0.00    -0.020 A 
ATOM     15  C   UNL d   1       2.200   0.971   3.057  0.00  0.00     0.037 A 
ATOM     16 BR   UNL d   1       3.254  -0.569   3.500  0.00  0.00    -0.049 Br
ATOM     17  C   UNL d   1       1.791   1.236   1.750  0.00  0.00     0.047 A 
ATOM     18 BR   UNL d   1       2.293   0.029   0.338  0.00  0.00    -0.048 Br
ATOM     19  C   UNL d   1       1.027   2.369   1.474  0.00  0.00     0.048 A 
ATOM     20 BR   UNL d   1       0.461   2.734  -0.330  0.00  0.00    -0.048 Br
ATOM     21  C   UNL d   1       0.672   3.239   2.505  0.00  0.00     0.047 A 
ATOM     22 BR   UNL d   1      -0.384   4.806   2.144  0.00  0.00    -0.048 Br
ATOM     23  C   UNL d   1       1.082   2.974   3.812  0.00  0.00     0.037 A 
ATOM     24 BR   UNL d   1       0.629   4.131   5.274  0.00  0.00    -0.049 Br
ENDBRANCH   1  14
TORSDOF 3
ENDMDL
MODEL 9
REMARK VINA RESULT:      -5.1      3.225      7.691
REMARK  3 active torsions:
REMARK  status: ('A' for Active; 'I' for Inactive)
REMARK    1  A    between atoms: C_11  and  C_12 
REMARK    2  A    between atoms: C_11  and  C_13 
REMARK    3  A    between atoms: C_12  and  C_14 
ROOT
ATOM      1  C   UNL d   1       1.272   0.718   6.168  0.00  0.00     0.045 C 
ENDROOT
BRANCH   1   2
ATOM      2  C   UNL d   1       2.081   1.841   5.498  0.00  0.00     0.045 C 
BRANCH   2   3
ATOM      3  C   UNL d   1       1.643   2.132   4.084  0.00  0.00    -0.020 A 
ATOM      4  C   UNL d   1       0.878   3.263   3.817  0.00  0.00     0.037 A 
ATOM      5 BR   UNL d   1       0.414   4.410   5.283  0.00  0.00    -0.049 Br
ATOM      6  C   UNL d   1       0.472   3.531   2.511  0.00  0.00     0.047 A 
ATOM      7 BR   UNL d   1      -0.590   5.094   2.152  0.00  0.00    -0.048 Br
ATOM      8  C   UNL d   1       0.832   2.667   1.476  0.00  0.00     0.048 A 
ATOM      9 BR   UNL d   1       0.272   3.038  -0.327  0.00  0.00    -0.048 Br
ATOM     10  C   UNL d   1       1.600   1.534   1.750  0.00  0.00     0.047 A 
ATOM     11 BR   UNL d   1       2.109   0.334   0.335  0.00  0.00    -0.048 Br
ATOM     12  C   UNL d   1       2.005   1.266   3.058  0.00  0.00     0.037 A 
ATOM     13 BR   UNL d   1       3.060  -0.274   3.498  0.00  0.00    -0.049 Br
ENDBRANCH   2   3
ENDBRANCH   1   2
BRANCH   1  14
ATOM     14  C   UNL d   1       0.570   1.145   7.424  0.00  0.00    -0.020 A 
ATOM     15  C   UNL d   1      -0.798   1.418   7.399  0.00  0.00     0.037 A 
ATOM     16 BR   UNL d   1      -1.724   1.230   5.731  0.00  0.00    -0.049 Br
ATOM     17  C   UNL d   1      -1.450   1.817   8.566  0.00  0.00     0.047 A 
ATOM     18 BR   UNL d   1      -3.336   2.196   8.514  0.00  0.00    -0.048 Br
ATOM     19  C   UNL d   1      -0.736   1.942   9.757  0.00  0.00     0.048 A 
ATOM     20 BR   UNL d   1      -1.637   2.493  11.368  0.00  0.00    -0.048 Br
ATOM     21  C   UNL d   1       0.632   1.669   9.782  0.00  0.00     0.047 A 
ATOM     22 BR   UNL d   1       1.633   1.832  11.417  0.00  0.00    -0.048 Br
ATOM     23  C   UNL d   1       1.284   1.270   8.615  0.00  0.00     0.037 A 
ATOM     24 BR   UNL d   1       3.162   0.880   8.583  0.00  0.00    -0.049 Br
ENDBRANCH   1  14
TORSDOF 3
ENDMDL
