MODEL 1
REMARK VINA RESULT:      -8.3      0.000      0.000
REMARK  6 active torsions:
REMARK  status: ('A' for Active; 'I' for Inactive)
REMARK    1  A    between atoms: N_8  and  C_18 
REMARK    2  A    between atoms: N_9  and  N_11 
REMARK       I    between atoms: N_9  and  C_22 
REMARK    3  A    between atoms: N_10  and  C_25 
REMARK       I    between atoms: N_11  and  C_27 
REMARK    4  A    between atoms: N_12  and  C_26 
REMARK       I    between atoms: N_12  and  C_27 
REMARK    5  A    between atoms: C_19  and  C_22 
REMARK    6  A    between atoms: C_28  and  C_33 
ROOT
ATOM      1  O   UNL d   1       8.123  12.996  -0.246  0.00  0.00    -0.267 OA
ATOM      2  N   UNL d   1       8.857  14.881   0.896  0.00  0.00    -0.263 N 
ATOM      3  C   UNL d   1       8.972  13.853  -0.019  0.00  0.00     0.260 C 
ATOM      4  H   UNL d   1       9.573  15.579   1.063  0.00  0.00     0.190 HD
ENDROOT
BRANCH   2   5
ATOM      5  N   UNL d   1       7.705  14.986   1.634  0.00  0.00    -0.248 N 
ATOM      6  C   UNL d   1       7.721  15.720   2.820  0.00  0.00     0.339 C 
ATOM      7  O   UNL d   1       8.724  16.287   3.247  0.00  0.00    -0.245 OA
ATOM      8  N   UNL d   1       6.456  15.705   3.414  0.00  0.00    -0.308 N 
ATOM      9  H   UNL d   1       5.731  15.186   2.925  0.00  0.00     0.170 HD
ATOM     10  H   UNL d   1       6.879  14.522   1.273  0.00  0.00     0.192 HD
BRANCH   8  11
ATOM     11  C   UNL d   1       6.055  16.326   4.620  0.00  0.00     0.037 A 
ATOM     12  C   UNL d   1       6.719  16.034   5.810  0.00  0.00     0.045 A 
ATOM     13  C   UNL d   1       6.322  16.647   6.999  0.00  0.00     0.050 A 
ATOM     14  C   UNL d   1       5.262  17.552   6.997  0.00  0.00     0.016 A 
ATOM     15  C   UNL d   1       4.597  17.845   5.806  0.00  0.00     0.003 A 
ATOM     16  C   UNL d   1       4.994  17.232   4.617  0.00  0.00     0.029 A 
BRANCH  13  17
ATOM     17  C   UNL d   1       7.033  16.333   8.272  0.00  0.00     0.417 C 
ATOM     18  F   UNL d   1       7.836  15.230   8.194  0.00  0.00    -0.166 F 
ATOM     19  F   UNL d   1       6.192  16.087   9.321  0.00  0.00    -0.166 F 
ATOM     20  F   UNL d   1       7.844  17.349   8.686  0.00  0.00    -0.166 F 
ENDBRANCH  13  17
ENDBRANCH   8  11
ENDBRANCH   2   5
BRANCH   3  21
ATOM     21  C   UNL d   1      10.278  13.896  -0.723  0.00  0.00     0.078 C 
ATOM     22  C   UNL d   1      10.327  13.839  -2.061  0.00  0.00    -0.071 C 
ATOM     23  C   UNL d   1      11.614  13.878  -2.837  0.00  0.00     0.054 C 
ATOM     24  C   UNL d   1       9.102  13.709  -2.921  0.00  0.00     0.054 C 
ATOM     25  C   UNL d   1      11.716  12.670  -3.770  0.00  0.00     0.127 C 
ATOM     26  N   UNL d   1      10.499  12.539  -4.591  0.00  0.00    -0.380 N 
ATOM     27  C   UNL d   1       9.222  12.506  -3.861  0.00  0.00     0.127 C 
BRANCH  26  28
ATOM     28  C   UNL d   1      10.614  11.862  -5.810  0.00  0.00     0.030 A 
ATOM     29  C   UNL d   1       9.878  12.287  -6.916  0.00  0.00     0.032 A 
ATOM     30  C   UNL d   1       9.992  11.614  -8.131  0.00  0.00     0.038 A 
ATOM     31  C   UNL d   1      10.843  10.513  -8.241  0.00  0.00     0.103 A 
ATOM     32  C   UNL d   1      11.579  10.087  -7.136  0.00  0.00     0.038 A 
ATOM     33  C   UNL d   1      11.465  10.762  -5.920  0.00  0.00     0.032 A 
BRANCH  31  34
ATOM     34  N   UNL d   1      10.959   9.826  -9.478  0.00  0.00    -0.116 N 
ATOM     35  O   UNL d   1      10.873   8.574  -9.489  0.00  0.00    -0.532 OA
ATOM     36  O   UNL d   1      11.147  10.489 -10.527  0.00  0.00    -0.532 OA
ENDBRANCH  31  34
ENDBRANCH  26  28
ENDBRANCH   3  21
TORSDOF 6
ENDMDL
MODEL 2
REMARK VINA RESULT:      -8.2      6.049     13.345
REMARK  6 active torsions:
REMARK  status: ('A' for Active; 'I' for Inactive)
REMARK    1  A    between atoms: N_8  and  C_18 
REMARK    2  A    between atoms: N_9  and  N_11 
REMARK       I    between atoms: N_9  and  C_22 
REMARK    3  A    between atoms: N_10  and  C_25 
REMARK       I    between atoms: N_11  and  C_27 
REMARK    4  A    between atoms: N_12  and  C_26 
REMARK       I    between atoms: N_12  and  C_27 
REMARK    5  A    between atoms: C_19  and  C_22 
REMARK    6  A    between atoms: C_28  and  C_33 
ROOT
ATOM      1  O   UNL d   1       8.549  13.593  -1.695  0.00  0.00    -0.267 OA
ATOM      2  N   UNL d   1      10.760  13.971  -2.299  0.00  0.00    -0.263 N 
ATOM      3  C   UNL d   1       9.565  14.281  -1.680  0.00  0.00     0.260 C 
ATOM      4  H   UNL d   1      11.588  14.556  -2.270  0.00  0.00     0.190 HD
ENDROOT
BRANCH   2   5
ATOM      5  N   UNL d   1      10.857  12.796  -3.002  0.00  0.00    -0.248 N 
ATOM      6  C   UNL d   1      10.797  12.829  -4.395  0.00  0.00     0.339 C 
ATOM      7  O   UNL d   1      10.661  13.867  -5.038  0.00  0.00    -0.245 OA
ATOM      8  N   UNL d   1      10.916  11.537  -4.914  0.00  0.00    -0.308 N 
ATOM      9  H   UNL d   1      11.024  10.784  -4.239  0.00  0.00     0.170 HD
ATOM     10  H   UNL d   1      10.975  11.944  -2.466  0.00  0.00     0.192 HD
BRANCH   8  11
ATOM     11  C   UNL d   1      10.905  11.141  -6.272  0.00  0.00     0.037 A 
ATOM     12  C   UNL d   1      10.049  11.770  -7.175  0.00  0.00     0.045 A 
ATOM     13  C   UNL d   1      10.039  11.379  -8.514  0.00  0.00     0.050 A 
ATOM     14  C   UNL d   1      10.884  10.359  -8.949  0.00  0.00     0.016 A 
ATOM     15  C   UNL d   1      11.741   9.730  -8.046  0.00  0.00     0.003 A 
ATOM     16  C   UNL d   1      11.751  10.121  -6.707  0.00  0.00     0.029 A 
BRANCH  13  17
ATOM     17  C   UNL d   1       9.123  12.052  -9.480  0.00  0.00     0.417 C 
ATOM     18  F   UNL d   1       8.097  11.257  -9.908  0.00  0.00    -0.166 F 
ATOM     19  F   UNL d   1       9.745  12.474 -10.621  0.00  0.00    -0.166 F 
ATOM     20  F   UNL d   1       8.530  13.164  -8.956  0.00  0.00    -0.166 F 
ENDBRANCH  13  17
ENDBRANCH   8  11
ENDBRANCH   2   5
BRANCH   3  21
ATOM     21  C   UNL d   1       9.645  15.582  -0.969  0.00  0.00     0.078 C 
ATOM     22  C   UNL d   1       9.808  15.617   0.361  0.00  0.00    -0.071 C 
ATOM     23  C   UNL d   1       9.896  16.898   1.143  0.00  0.00     0.054 C 
ATOM     24  C   UNL d   1       9.899  14.379   1.208  0.00  0.00     0.054 C 
ATOM     25  C   UNL d   1       8.857  16.915   2.265  0.00  0.00     0.127 C 
ATOM     26  N   UNL d   1       8.941  15.686   3.074  0.00  0.00    -0.380 N 
ATOM     27  C   UNL d   1       8.865  14.416   2.337  0.00  0.00     0.127 C 
BRANCH  26  28
ATOM     28  C   UNL d   1       8.471  15.748   4.390  0.00  0.00     0.030 A 
ATOM     29  C   UNL d   1       8.267  16.986   5.001  0.00  0.00     0.032 A 
ATOM     30  C   UNL d   1       7.798  17.049   6.312  0.00  0.00     0.038 A 
ATOM     31  C   UNL d   1       7.533  15.872   7.015  0.00  0.00     0.103 A 
ATOM     32  C   UNL d   1       7.736  14.635   6.405  0.00  0.00     0.038 A 
ATOM     33  C   UNL d   1       8.205  14.573   5.092  0.00  0.00     0.032 A 
BRANCH  31  34
ATOM     34  N   UNL d   1       7.056  15.935   8.351  0.00  0.00    -0.116 N 
ATOM     35  O   UNL d   1       7.332  15.000   9.140  0.00  0.00    -0.532 OA
ATOM     36  O   UNL d   1       6.371  16.925   8.706  0.00  0.00    -0.532 OA
ENDBRANCH  31  34
ENDBRANCH  26  28
ENDBRANCH   3  21
TORSDOF 6
ENDMDL
MODEL 3
REMARK VINA RESULT:      -8.0      6.397     13.491
REMARK  6 active torsions:
REMARK  status: ('A' for Active; 'I' for Inactive)
REMARK    1  A    between atoms: N_8  and  C_18 
REMARK    2  A    between atoms: N_9  and  N_11 
REMARK       I    between atoms: N_9  and  C_22 
REMARK    3  A    between atoms: N_10  and  C_25 
REMARK       I    between atoms: N_11  and  C_27 
REMARK    4  A    between atoms: N_12  and  C_26 
REMARK       I    between atoms: N_12  and  C_27 
REMARK    5  A    between atoms: C_19  and  C_22 
REMARK    6  A    between atoms: C_28  and  C_33 
ROOT
ATOM      1  O   UNL d   1       8.475  14.788  -1.431  0.00  0.00    -0.267 OA
ATOM      2  N   UNL d   1      10.158  13.434  -2.284  0.00  0.00    -0.263 N 
ATOM      3  C   UNL d   1       9.599  14.302  -1.367  0.00  0.00     0.260 C 
ATOM      4  H   UNL d   1      11.091  13.043  -2.207  0.00  0.00     0.190 HD
ENDROOT
BRANCH   2   5
ATOM      5  N   UNL d   1       9.418  13.059  -3.378  0.00  0.00    -0.248 N 
ATOM      6  C   UNL d   1       9.974  13.184  -4.651  0.00  0.00     0.339 C 
ATOM      7  O   UNL d   1      11.107  13.618  -4.851  0.00  0.00    -0.245 OA
ATOM      8  N   UNL d   1       9.065  12.750  -5.619  0.00  0.00    -0.308 N 
ATOM      9  H   UNL d   1       8.165  12.418  -5.281  0.00  0.00     0.170 HD
ATOM     10  H   UNL d   1       8.487  12.697  -3.206  0.00  0.00     0.192 HD
BRANCH   8  11
ATOM     11  C   UNL d   1       9.241  12.714  -7.022  0.00  0.00     0.037 A 
ATOM     12  C   UNL d   1       9.922  11.651  -7.613  0.00  0.00     0.045 A 
ATOM     13  C   UNL d   1      10.095  11.616  -8.997  0.00  0.00     0.050 A 
ATOM     14  C   UNL d   1       9.585  12.644  -9.789  0.00  0.00     0.016 A 
ATOM     15  C   UNL d   1       8.902  13.707  -9.198  0.00  0.00     0.003 A 
ATOM     16  C   UNL d   1       8.730  13.742  -7.815  0.00  0.00     0.029 A 
BRANCH  13  17
ATOM     17  C   UNL d   1      10.825  10.479  -9.629  0.00  0.00     0.417 C 
ATOM     18  F   UNL d   1      11.594   9.767  -8.752  0.00  0.00    -0.166 F 
ATOM     19  F   UNL d   1      11.681  10.863 -10.622  0.00  0.00    -0.166 F 
ATOM     20  F   UNL d   1       9.985   9.569 -10.203  0.00  0.00    -0.166 F 
ENDBRANCH  13  17
ENDBRANCH   8  11
ENDBRANCH   2   5
BRANCH   3  21
ATOM     21  C   UNL d   1      10.539  14.594  -0.254  0.00  0.00     0.078 C 
ATOM     22  C   UNL d   1      10.198  14.309   1.011  0.00  0.00    -0.071 C 
ATOM     23  C   UNL d   1      11.100  14.578   2.183  0.00  0.00     0.054 C 
ATOM     24  C   UNL d   1       8.872  13.711   1.388  0.00  0.00     0.054 C 
ATOM     25  C   UNL d   1      10.382  15.434   3.228  0.00  0.00     0.127 C 
ATOM     26  N   UNL d   1       9.073  14.850   3.572  0.00  0.00    -0.380 N 
ATOM     27  C   UNL d   1       8.170  14.568   2.445  0.00  0.00     0.127 C 
BRANCH  26  28
ATOM     28  C   UNL d   1       8.534  15.168   4.823  0.00  0.00     0.030 A 
ATOM     29  C   UNL d   1       8.217  14.152   5.725  0.00  0.00     0.032 A 
ATOM     30  C   UNL d   1       7.681  14.468   6.973  0.00  0.00     0.038 A 
ATOM     31  C   UNL d   1       7.461  15.802   7.319  0.00  0.00     0.103 A 
ATOM     32  C   UNL d   1       7.777  16.818   6.418  0.00  0.00     0.038 A 
ATOM     33  C   UNL d   1       8.314  16.501   5.170  0.00  0.00     0.032 A 
BRANCH  31  34
ATOM     34  N   UNL d   1       6.914  16.125   8.589  0.00  0.00    -0.116 N 
ATOM     35  O   UNL d   1       7.095  15.336   9.548  0.00  0.00    -0.532 OA
ATOM     36  O   UNL d   1       6.262  17.190   8.718  0.00  0.00    -0.532 OA
ENDBRANCH  31  34
ENDBRANCH  26  28
ENDBRANCH   3  21
TORSDOF 6
ENDMDL
MODEL 4
REMARK VINA RESULT:      -7.7      6.426     12.145
REMARK  6 active torsions:
REMARK  status: ('A' for Active; 'I' for Inactive)
REMARK    1  A    between atoms: N_8  and  C_18 
REMARK    2  A    between atoms: N_9  and  N_11 
REMARK       I    between atoms: N_9  and  C_22 
REMARK    3  A    between atoms: N_10  and  C_25 
REMARK       I    between atoms: N_11  and  C_27 
REMARK    4  A    between atoms: N_12  and  C_26 
REMARK       I    between atoms: N_12  and  C_27 
REMARK    5  A    between atoms: C_19  and  C_22 
REMARK    6  A    between atoms: C_28  and  C_33 
ROOT
ATOM      1  O   UNL d   1       7.886  14.773  -2.071  0.00  0.00    -0.267 OA
ATOM      2  N   UNL d   1       8.781  12.632  -2.162  0.00  0.00    -0.263 N 
ATOM      3  C   UNL d   1       8.726  13.943  -1.735  0.00  0.00     0.260 C 
ATOM      4  H   UNL d   1       9.486  11.963  -1.868  0.00  0.00     0.190 HD
ENDROOT
BRANCH   2   5
ATOM      5  N   UNL d   1       7.828  12.179  -3.040  0.00  0.00    -0.248 N 
ATOM      6  C   UNL d   1       6.955  11.170  -2.636  0.00  0.00     0.339 C 
ATOM      7  O   UNL d   1       6.991  10.655  -1.521  0.00  0.00    -0.245 OA
ATOM      8  N   UNL d   1       6.067  10.857  -3.669  0.00  0.00    -0.308 N 
ATOM      9  H   UNL d   1       6.173  11.382  -4.533  0.00  0.00     0.170 HD
ATOM     10  H   UNL d   1       7.799  12.612  -3.956  0.00  0.00     0.192 HD
BRANCH   8  11
ATOM     11  C   UNL d   1       5.031   9.894  -3.663  0.00  0.00     0.037 A 
ATOM     12  C   UNL d   1       5.340   8.536  -3.718  0.00  0.00     0.045 A 
ATOM     13  C   UNL d   1       4.318   7.587  -3.713  0.00  0.00     0.050 A 
ATOM     14  C   UNL d   1       2.987   7.997  -3.652  0.00  0.00     0.016 A 
ATOM     15  C   UNL d   1       2.677   9.355  -3.596  0.00  0.00     0.003 A 
ATOM     16  C   UNL d   1       3.699  10.304  -3.601  0.00  0.00     0.029 A 
BRANCH  13  17
ATOM     17  C   UNL d   1       4.649   6.134  -3.772  0.00  0.00     0.417 C 
ATOM     18  F   UNL d   1       5.871   5.873  -4.326  0.00  0.00    -0.166 F 
ATOM     19  F   UNL d   1       3.762   5.400  -4.508  0.00  0.00    -0.166 F 
ATOM     20  F   UNL d   1       4.673   5.549  -2.540  0.00  0.00    -0.166 F 
ENDBRANCH  13  17
ENDBRANCH   8  11
ENDBRANCH   2   5
BRANCH   3  21
ATOM     21  C   UNL d   1       9.831  14.254  -0.793  0.00  0.00     0.078 C 
ATOM     22  C   UNL d   1       9.696  13.996   0.516  0.00  0.00    -0.071 C 
ATOM     23  C   UNL d   1      10.773  14.286   1.524  0.00  0.00     0.054 C 
ATOM     24  C   UNL d   1       8.446  13.412   1.111  0.00  0.00     0.054 C 
ATOM     25  C   UNL d   1      10.232  15.166   2.651  0.00  0.00     0.127 C 
ATOM     26  N   UNL d   1       8.994  14.595   3.211  0.00  0.00    -0.380 N 
ATOM     27  C   UNL d   1       7.923  14.293   2.249  0.00  0.00     0.127 C 
BRANCH  26  28
ATOM     28  C   UNL d   1       8.662  14.941   4.526  0.00  0.00     0.030 A 
ATOM     29  C   UNL d   1       8.093  13.991   5.375  0.00  0.00     0.032 A 
ATOM     30  C   UNL d   1       7.763  14.335   6.685  0.00  0.00     0.038 A 
ATOM     31  C   UNL d   1       8.000  15.630   7.147  0.00  0.00     0.103 A 
ATOM     32  C   UNL d   1       8.568  16.580   6.298  0.00  0.00     0.038 A 
ATOM     33  C   UNL d   1       8.899  16.235   4.988  0.00  0.00     0.032 A 
BRANCH  31  34
ATOM     34  N   UNL d   1       7.663  15.982   8.480  0.00  0.00    -0.116 N 
ATOM     35  O   UNL d   1       7.881  17.152   8.875  0.00  0.00    -0.532 OA
ATOM     36  O   UNL d   1       7.155  15.111   9.229  0.00  0.00    -0.532 OA
ENDBRANCH  31  34
ENDBRANCH  26  28
ENDBRANCH   3  21
TORSDOF 6
ENDMDL
MODEL 5
REMARK VINA RESULT:      -7.3      2.019      2.660
REMARK  6 active torsions:
REMARK  status: ('A' for Active; 'I' for Inactive)
REMARK    1  A    between atoms: N_8  and  C_18 
REMARK    2  A    between atoms: N_9  and  N_11 
REMARK       I    between atoms: N_9  and  C_22 
REMARK    3  A    between atoms: N_10  and  C_25 
REMARK       I    between atoms: N_11  and  C_27 
REMARK    4  A    between atoms: N_12  and  C_26 
REMARK       I    between atoms: N_12  and  C_27 
REMARK    5  A    between atoms: C_19  and  C_22 
REMARK    6  A    between atoms: C_28  and  C_33 
ROOT
ATOM      1  O   UNL d   1       9.464  14.556  -2.607  0.00  0.00    -0.267 OA
ATOM      2  N   UNL d   1      10.747  14.498  -0.672  0.00  0.00    -0.263 N 
ATOM      3  C   UNL d   1      10.398  14.108  -1.949  0.00  0.00     0.260 C 
ATOM      4  H   UNL d   1      11.526  14.113  -0.149  0.00  0.00     0.190 HD
ENDROOT
BRANCH   2   5
ATOM      5  N   UNL d   1      10.007  15.474  -0.051  0.00  0.00    -0.248 N 
ATOM      6  C   UNL d   1       9.901  15.467   1.339  0.00  0.00     0.339 C 
ATOM      7  O   UNL d   1      10.442  14.624   2.051  0.00  0.00    -0.245 OA
ATOM      8  N   UNL d   1       9.112  16.537   1.769  0.00  0.00    -0.308 N 
ATOM      9  H   UNL d   1       8.740  17.146   1.044  0.00  0.00     0.170 HD
ATOM     10  H   UNL d   1       9.569  16.170  -0.643  0.00  0.00     0.192 HD
BRANCH   8  11
ATOM     11  C   UNL d   1       8.763  16.883   3.095  0.00  0.00     0.037 A 
ATOM     12  C   UNL d   1       8.349  15.895   3.988  0.00  0.00     0.045 A 
ATOM     13  C   UNL d   1       8.005  16.237   5.296  0.00  0.00     0.050 A 
ATOM     14  C   UNL d   1       8.075  17.567   5.710  0.00  0.00     0.016 A 
ATOM     15  C   UNL d   1       8.491  18.555   4.818  0.00  0.00     0.003 A 
ATOM     16  C   UNL d   1       8.834  18.213   3.510  0.00  0.00     0.029 A 
BRANCH  13  17
ATOM     17  C   UNL d   1       7.561  15.181   6.250  0.00  0.00     0.417 C 
ATOM     18  F   UNL d   1       6.463  14.487   5.828  0.00  0.00    -0.166 F 
ATOM     19  F   UNL d   1       7.224  15.664   7.483  0.00  0.00    -0.166 F 
ATOM     20  F   UNL d   1       8.524  14.240   6.478  0.00  0.00    -0.166 F 
ENDBRANCH  13  17
ENDBRANCH   8  11
ENDBRANCH   2   5
BRANCH   3  21
ATOM     21  C   UNL d   1      11.305  13.049  -2.460  0.00  0.00     0.078 C 
ATOM     22  C   UNL d   1      11.455  12.865  -3.779  0.00  0.00    -0.071 C 
ATOM     23  C   UNL d   1      12.355  11.813  -4.363  0.00  0.00     0.054 C 
ATOM     24  C   UNL d   1      10.721  13.678  -4.808  0.00  0.00     0.054 C 
ATOM     25  C   UNL d   1      11.579  10.916  -5.329  0.00  0.00     0.127 C 
ATOM     26  N   UNL d   1      10.846  11.726  -6.318  0.00  0.00    -0.380 N 
ATOM     27  C   UNL d   1       9.961  12.770  -5.778  0.00  0.00     0.127 C 
BRANCH  26  28
ATOM     28  C   UNL d   1      10.531  11.121  -7.540  0.00  0.00     0.030 A 
ATOM     29  C   UNL d   1       9.532  11.662  -8.350  0.00  0.00     0.032 A 
ATOM     30  C   UNL d   1       9.219  11.060  -9.568  0.00  0.00     0.038 A 
ATOM     31  C   UNL d   1       9.905   9.915  -9.977  0.00  0.00     0.103 A 
ATOM     32  C   UNL d   1      10.903   9.374  -9.167  0.00  0.00     0.038 A 
ATOM     33  C   UNL d   1      11.216   9.977  -7.949  0.00  0.00     0.032 A 
BRANCH  31  34
ATOM     34  N   UNL d   1       9.585   9.301 -11.216  0.00  0.00    -0.116 N 
ATOM     35  O   UNL d   1      10.445   8.580 -11.778  0.00  0.00    -0.532 OA
ATOM     36  O   UNL d   1       8.451   9.496 -11.718  0.00  0.00    -0.532 OA
ENDBRANCH  31  34
ENDBRANCH  26  28
ENDBRANCH   3  21
TORSDOF 6
ENDMDL
MODEL 6
REMARK VINA RESULT:      -7.0      6.268     11.078
REMARK  6 active torsions:
REMARK  status: ('A' for Active; 'I' for Inactive)
REMARK    1  A    between atoms: N_8  and  C_18 
REMARK    2  A    between atoms: N_9  and  N_11 
REMARK       I    between atoms: N_9  and  C_22 
REMARK    3  A    between atoms: N_10  and  C_25 
REMARK       I    between atoms: N_11  and  C_27 
REMARK    4  A    between atoms: N_12  and  C_26 
REMARK       I    between atoms: N_12  and  C_27 
REMARK    5  A    between atoms: C_19  and  C_22 
REMARK    6  A    between atoms: C_28  and  C_33 
ROOT
ATOM      1  O   UNL d   1       5.549  13.623  -3.496  0.00  0.00    -0.267 OA
ATOM      2  N   UNL d   1       6.950  11.773  -3.598  0.00  0.00    -0.263 N 
ATOM      3  C   UNL d   1       6.663  13.113  -3.428  0.00  0.00     0.260 C 
ATOM      4  H   UNL d   1       7.881  11.375  -3.535  0.00  0.00     0.190 HD
ENDROOT
BRANCH   2   5
ATOM      5  N   UNL d   1       5.922  10.904  -3.868  0.00  0.00    -0.248 N 
ATOM      6  C   UNL d   1       5.688   9.837  -3.001  0.00  0.00     0.339 C 
ATOM      7  O   UNL d   1       6.360   9.629  -1.993  0.00  0.00    -0.245 OA
ATOM      8  N   UNL d   1       4.604   9.079  -3.451  0.00  0.00    -0.308 N 
ATOM      9  H   UNL d   1       4.156   9.392  -4.308  0.00  0.00     0.170 HD
ATOM     10  H   UNL d   1       5.368  11.085  -4.697  0.00  0.00     0.192 HD
BRANCH   8  11
ATOM     11  C   UNL d   1       4.049   7.920  -2.859  0.00  0.00     0.037 A 
ATOM     12  C   UNL d   1       3.076   8.041  -1.867  0.00  0.00     0.045 A 
ATOM     13  C   UNL d   1       2.529   6.898  -1.284  0.00  0.00     0.050 A 
ATOM     14  C   UNL d   1       2.954   5.635  -1.694  0.00  0.00     0.016 A 
ATOM     15  C   UNL d   1       3.925   5.513  -2.687  0.00  0.00     0.003 A 
ATOM     16  C   UNL d   1       4.473   6.656  -3.270  0.00  0.00     0.029 A 
BRANCH  13  17
ATOM     17  C   UNL d   1       1.490   7.028  -0.222  0.00  0.00     0.417 C 
ATOM     18  F   UNL d   1       1.636   8.142   0.555  0.00  0.00    -0.166 F 
ATOM     19  F   UNL d   1       1.472   5.981   0.656  0.00  0.00    -0.166 F 
ATOM     20  F   UNL d   1       0.225   7.099  -0.730  0.00  0.00    -0.166 F 
ENDBRANCH  13  17
ENDBRANCH   8  11
ENDBRANCH   2   5
BRANCH   3  21
ATOM     21  C   UNL d   1       7.891  13.899  -3.144  0.00  0.00     0.078 C 
ATOM     22  C   UNL d   1       8.496  13.800  -1.952  0.00  0.00    -0.071 C 
ATOM     23  C   UNL d   1       9.741  14.566  -1.598  0.00  0.00     0.054 C 
ATOM     24  C   UNL d   1       7.981  12.930  -0.841  0.00  0.00     0.054 C 
ATOM     25  C   UNL d   1       9.529  15.371  -0.315  0.00  0.00     0.127 C 
ATOM     26  N   UNL d   1       9.002  14.512   0.760  0.00  0.00    -0.380 N 
ATOM     27  C   UNL d   1       7.789  13.743   0.442  0.00  0.00     0.127 C 
BRANCH  26  28
ATOM     28  C   UNL d   1       9.238  14.913   2.079  0.00  0.00     0.030 A 
ATOM     29  C   UNL d   1       8.214  14.839   3.025  0.00  0.00     0.032 A 
ATOM     30  C   UNL d   1       8.448  15.238   4.340  0.00  0.00     0.038 A 
ATOM     31  C   UNL d   1       9.708  15.712   4.711  0.00  0.00     0.103 A 
ATOM     32  C   UNL d   1      10.730  15.787   3.766  0.00  0.00     0.038 A 
ATOM     33  C   UNL d   1      10.496  15.387   2.451  0.00  0.00     0.032 A 
BRANCH  31  34
ATOM     34  N   UNL d   1       9.947  16.120   6.050  0.00  0.00    -0.116 N 
ATOM     35  O   UNL d   1       8.987  16.149   6.857  0.00  0.00    -0.532 OA
ATOM     36  O   UNL d   1      11.111  16.442   6.389  0.00  0.00    -0.532 OA
ENDBRANCH  31  34
ENDBRANCH  26  28
ENDBRANCH   3  21
TORSDOF 6
ENDMDL
MODEL 7
REMARK VINA RESULT:      -6.9      2.359      3.249
REMARK  6 active torsions:
REMARK  status: ('A' for Active; 'I' for Inactive)
REMARK    1  A    between atoms: N_8  and  C_18 
REMARK    2  A    between atoms: N_9  and  N_11 
REMARK       I    between atoms: N_9  and  C_22 
REMARK    3  A    between atoms: N_10  and  C_25 
REMARK       I    between atoms: N_11  and  C_27 
REMARK    4  A    between atoms: N_12  and  C_26 
REMARK       I    between atoms: N_12  and  C_27 
REMARK    5  A    between atoms: C_19  and  C_22 
REMARK    6  A    between atoms: C_28  and  C_33 
ROOT
ATOM      1  O   UNL d   1       8.935  17.572  -2.469  0.00  0.00    -0.267 OA
ATOM      2  N   UNL d   1       7.275  16.658  -1.127  0.00  0.00    -0.263 N 
ATOM      3  C   UNL d   1       7.911  16.911  -2.326  0.00  0.00     0.260 C 
ATOM      4  H   UNL d   1       6.429  16.105  -1.034  0.00  0.00     0.190 HD
ENDROOT
BRANCH   2   5
ATOM      5  N   UNL d   1       7.806  17.175   0.028  0.00  0.00    -0.248 N 
ATOM      6  C   UNL d   1       8.041  16.326   1.110  0.00  0.00     0.339 C 
ATOM      7  O   UNL d   1       7.796  15.122   1.085  0.00  0.00    -0.245 OA
ATOM      8  N   UNL d   1       8.582  17.045   2.179  0.00  0.00    -0.308 N 
ATOM      9  H   UNL d   1       8.723  18.041   2.031  0.00  0.00     0.170 HD
ATOM     10  H   UNL d   1       8.012  18.168   0.040  0.00  0.00     0.192 HD
BRANCH   8  11
ATOM     11  C   UNL d   1       8.960  16.557   3.451  0.00  0.00     0.037 A 
ATOM     12  C   UNL d   1       8.099  15.723   4.164  0.00  0.00     0.045 A 
ATOM     13  C   UNL d   1       8.473  15.242   5.418  0.00  0.00     0.050 A 
ATOM     14  C   UNL d   1       9.708  15.596   5.961  0.00  0.00     0.016 A 
ATOM     15  C   UNL d   1      10.570  16.430   5.249  0.00  0.00     0.003 A 
ATOM     16  C   UNL d   1      10.196  16.910   3.994  0.00  0.00     0.029 A 
BRANCH  13  17
ATOM     17  C   UNL d   1       7.552  14.350   6.180  0.00  0.00     0.417 C 
ATOM     18  F   UNL d   1       7.497  14.632   7.516  0.00  0.00    -0.166 F 
ATOM     19  F   UNL d   1       7.888  13.028   6.109  0.00  0.00    -0.166 F 
ATOM     20  F   UNL d   1       6.263  14.424   5.736  0.00  0.00    -0.166 F 
ENDBRANCH  13  17
ENDBRANCH   8  11
ENDBRANCH   2   5
BRANCH   3  21
ATOM     21  C   UNL d   1       7.199  16.274  -3.462  0.00  0.00     0.078 C 
ATOM     22  C   UNL d   1       7.536  15.040  -3.865  0.00  0.00    -0.071 C 
ATOM     23  C   UNL d   1       6.857  14.338  -5.008  0.00  0.00     0.054 C 
ATOM     24  C   UNL d   1       8.639  14.243  -3.230  0.00  0.00     0.054 C 
ATOM     25  C   UNL d   1       7.884  13.885  -6.047  0.00  0.00     0.127 C 
ATOM     26  N   UNL d   1       8.973  13.125  -5.408  0.00  0.00    -0.380 N 
ATOM     27  C   UNL d   1       9.652  13.782  -4.281  0.00  0.00     0.127 C 
BRANCH  26  28
ATOM     28  C   UNL d   1       9.682  12.220  -6.207  0.00  0.00     0.030 A 
ATOM     29  C   UNL d   1       9.356  12.077  -7.556  0.00  0.00     0.032 A 
ATOM     30  C   UNL d   1      10.062  11.176  -8.352  0.00  0.00     0.038 A 
ATOM     31  C   UNL d   1      11.094  10.417  -7.799  0.00  0.00     0.103 A 
ATOM     32  C   UNL d   1      11.419  10.559  -6.451  0.00  0.00     0.038 A 
ATOM     33  C   UNL d   1      10.713  11.461  -5.655  0.00  0.00     0.032 A 
BRANCH  31  34
ATOM     34  N   UNL d   1      11.813   9.498  -8.609  0.00  0.00    -0.116 N 
ATOM     35  O   UNL d   1      11.187   8.813  -9.453  0.00  0.00    -0.532 OA
ATOM     36  O   UNL d   1      13.055   9.395  -8.457  0.00  0.00    -0.532 OA
ENDBRANCH  31  34
ENDBRANCH  26  28
ENDBRANCH   3  21
TORSDOF 6
ENDMDL
MODEL 8
REMARK VINA RESULT:      -6.8     17.946     21.832
REMARK  6 active torsions:
REMARK  status: ('A' for Active; 'I' for Inactive)
REMARK    1  A    between atoms: N_8  and  C_18 
REMARK    2  A    between atoms: N_9  and  N_11 
REMARK       I    between atoms: N_9  and  C_22 
REMARK    3  A    between atoms: N_10  and  C_25 
REMARK       I    between atoms: N_11  and  C_27 
REMARK    4  A    between atoms: N_12  and  C_26 
REMARK       I    between atoms: N_12  and  C_27 
REMARK    5  A    between atoms: C_19  and  C_22 
REMARK    6  A    between atoms: C_28  and  C_33 
ROOT
ATOM      1  O   UNL d   1       3.062  -4.445  -2.939  0.00  0.00    -0.267 OA
ATOM      2  N   UNL d   1       4.396  -2.600  -3.396  0.00  0.00    -0.263 N 
ATOM      3  C   UNL d   1       3.529  -3.354  -2.630  0.00  0.00     0.260 C 
ATOM      4  H   UNL d   1       4.771  -1.700  -3.117  0.00  0.00     0.190 HD
ENDROOT
BRANCH   2   5
ATOM      5  N   UNL d   1       4.793  -3.084  -4.618  0.00  0.00    -0.248 N 
ATOM      6  C   UNL d   1       5.429  -2.226  -5.515  0.00  0.00     0.339 C 
ATOM      7  O   UNL d   1       5.658  -1.044  -5.270  0.00  0.00    -0.245 OA
ATOM      8  N   UNL d   1       5.751  -2.910  -6.691  0.00  0.00    -0.308 N 
ATOM      9  H   UNL d   1       5.490  -3.893  -6.730  0.00  0.00     0.170 HD
ATOM     10  H   UNL d   1       4.608  -4.061  -4.812  0.00  0.00     0.192 HD
BRANCH   8  11
ATOM     11  C   UNL d   1       6.399  -2.404  -7.841  0.00  0.00     0.037 A 
ATOM     12  C   UNL d   1       7.681  -2.842  -8.170  0.00  0.00     0.045 A 
ATOM     13  C   UNL d   1       8.319  -2.342  -9.306  0.00  0.00     0.050 A 
ATOM     14  C   UNL d   1       7.675  -1.405 -10.112  0.00  0.00     0.016 A 
ATOM     15  C   UNL d   1       6.391  -0.967  -9.784  0.00  0.00     0.003 A 
ATOM     16  C   UNL d   1       5.754  -1.467  -8.649  0.00  0.00     0.029 A 
BRANCH  13  17
ATOM     17  C   UNL d   1       9.691  -2.810  -9.656  0.00  0.00     0.417 C 
ATOM     18  F   UNL d   1      10.054  -3.966  -9.025  0.00  0.00    -0.166 F 
ATOM     19  F   UNL d   1      10.672  -1.912  -9.344  0.00  0.00    -0.166 F 
ATOM     20  F   UNL d   1       9.836  -3.060 -10.990  0.00  0.00    -0.166 F 
ENDBRANCH  13  17
ENDBRANCH   8  11
ENDBRANCH   2   5
BRANCH   3  21
ATOM     21  C   UNL d   1       3.212  -2.678  -1.347  0.00  0.00     0.078 C 
ATOM     22  C   UNL d   1       3.994  -2.863  -0.274  0.00  0.00    -0.071 C 
ATOM     23  C   UNL d   1       3.731  -2.210   1.055  0.00  0.00     0.054 C 
ATOM     24  C   UNL d   1       5.201  -3.757  -0.284  0.00  0.00     0.054 C 
ATOM     25  C   UNL d   1       3.653  -3.261   2.164  0.00  0.00     0.127 C 
ATOM     26  N   UNL d   1       4.830  -4.146   2.128  0.00  0.00    -0.380 N 
ATOM     27  C   UNL d   1       5.119  -4.794   0.840  0.00  0.00     0.127 C 
BRANCH  26  28
ATOM     28  C   UNL d   1       5.189  -4.788   3.319  0.00  0.00     0.030 A 
ATOM     29  C   UNL d   1       5.290  -6.179   3.357  0.00  0.00     0.032 A 
ATOM     30  C   UNL d   1       5.648  -6.820   4.543  0.00  0.00     0.038 A 
ATOM     31  C   UNL d   1       5.905  -6.070   5.691  0.00  0.00     0.103 A 
ATOM     32  C   UNL d   1       5.804  -4.680   5.653  0.00  0.00     0.038 A 
ATOM     33  C   UNL d   1       5.446  -4.039   4.466  0.00  0.00     0.032 A 
BRANCH  31  34
ATOM     34  N   UNL d   1       6.268  -6.722   6.899  0.00  0.00    -0.116 N 
ATOM     35  O   UNL d   1       7.441  -6.601   7.326  0.00  0.00    -0.532 OA
ATOM     36  O   UNL d   1       5.405  -7.402   7.506  0.00  0.00    -0.532 OA
ENDBRANCH  31  34
ENDBRANCH  26  28
ENDBRANCH   3  21
TORSDOF 6
ENDMDL
MODEL 9
REMARK VINA RESULT:      -6.8     25.947     27.520
REMARK  6 active torsions:
REMARK  status: ('A' for Active; 'I' for Inactive)
REMARK    1  A    between atoms: N_8  and  C_18 
REMARK    2  A    between atoms: N_9  and  N_11 
REMARK       I    between atoms: N_9  and  C_22 
REMARK    3  A    between atoms: N_10  and  C_25 
REMARK       I    between atoms: N_11  and  C_27 
REMARK    4  A    between atoms: N_12  and  C_26 
REMARK       I    between atoms: N_12  and  C_27 
REMARK    5  A    between atoms: C_19  and  C_22 
REMARK    6  A    between atoms: C_28  and  C_33 
ROOT
ATOM      1  O   UNL d   1      10.515 -13.740   4.051  0.00  0.00    -0.267 OA
ATOM      2  N   UNL d   1      10.763 -11.648   5.028  0.00  0.00    -0.263 N 
ATOM      3  C   UNL d   1      11.213 -12.862   4.549  0.00  0.00     0.260 C 
ATOM      4  H   UNL d   1      11.362 -10.936   5.434  0.00  0.00     0.190 HD
ENDROOT
BRANCH   2   5
ATOM      5  N   UNL d   1       9.422 -11.362   4.958  0.00  0.00    -0.248 N 
ATOM      6  C   UNL d   1       9.011 -10.030   4.912  0.00  0.00     0.339 C 
ATOM      7  O   UNL d   1       9.795  -9.083   4.931  0.00  0.00    -0.245 OA
ATOM      8  N   UNL d   1       7.618  -9.957   4.841  0.00  0.00    -0.308 N 
ATOM      9  H   UNL d   1       7.117 -10.842   4.834  0.00  0.00     0.170 HD
ATOM     10  H   UNL d   1       8.782 -12.147   4.937  0.00  0.00     0.192 HD
BRANCH   8  11
ATOM     11  C   UNL d   1       6.810  -8.798   4.779  0.00  0.00     0.037 A 
ATOM     12  C   UNL d   1       6.854  -7.860   5.810  0.00  0.00     0.045 A 
ATOM     13  C   UNL d   1       6.057  -6.717   5.747  0.00  0.00     0.050 A 
ATOM     14  C   UNL d   1       5.216  -6.512   4.653  0.00  0.00     0.016 A 
ATOM     15  C   UNL d   1       5.173  -7.449   3.621  0.00  0.00     0.003 A 
ATOM     16  C   UNL d   1       5.970  -8.592   3.684  0.00  0.00     0.029 A 
BRANCH  13  17
ATOM     17  C   UNL d   1       6.103  -5.714   6.850  0.00  0.00     0.417 C 
ATOM     18  F   UNL d   1       4.943  -5.635   7.568  0.00  0.00    -0.166 F 
ATOM     19  F   UNL d   1       6.343  -4.439   6.421  0.00  0.00    -0.166 F 
ATOM     20  F   UNL d   1       7.081  -5.982   7.763  0.00  0.00    -0.166 F 
ENDBRANCH  13  17
ENDBRANCH   8  11
ENDBRANCH   2   5
BRANCH   3  21
ATOM     21  C   UNL d   1      12.683 -12.996   4.705  0.00  0.00     0.078 C 
ATOM     22  C   UNL d   1      13.203 -13.434   5.861  0.00  0.00    -0.071 C 
ATOM     23  C   UNL d   1      14.681 -13.593   6.087  0.00  0.00     0.054 C 
ATOM     24  C   UNL d   1      12.363 -13.791   7.054  0.00  0.00     0.054 C 
ATOM     25  C   UNL d   1      15.121 -12.816   7.328  0.00  0.00     0.127 C 
ATOM     26  N   UNL d   1      14.275 -13.156   8.486  0.00  0.00    -0.380 N 
ATOM     27  C   UNL d   1      12.823 -13.018   8.294  0.00  0.00     0.127 C 
BRANCH  26  28
ATOM     28  C   UNL d   1      14.822 -12.972   9.760  0.00  0.00     0.030 A 
ATOM     29  C   UNL d   1      16.093 -12.413   9.900  0.00  0.00     0.032 A 
ATOM     30  C   UNL d   1      16.638 -12.228  11.170  0.00  0.00     0.038 A 
ATOM     31  C   UNL d   1      15.913 -12.604  12.301  0.00  0.00     0.103 A 
ATOM     32  C   UNL d   1      14.643 -13.163  12.162  0.00  0.00     0.038 A 
ATOM     33  C   UNL d   1      14.098 -13.346  10.892  0.00  0.00     0.032 A 
BRANCH  31  34
ATOM     34  N   UNL d   1      16.468 -12.417  13.595  0.00  0.00    -0.116 N 
ATOM     35  O   UNL d   1      15.811 -11.782  14.454  0.00  0.00    -0.532 OA
ATOM     36  O   UNL d   1      17.603 -12.892  13.844  0.00  0.00    -0.532 OA
ENDBRANCH  31  34
ENDBRANCH  26  28
ENDBRANCH   3  21
TORSDOF 6
ENDMDL
