MODEL 1
REMARK VINA RESULT:      -5.6      0.000      0.000
REMARK  8 active torsions:
REMARK  status: ('A' for Active; 'I' for Inactive)
REMARK    1  A    between atoms: O_4  and  C_14 
REMARK    2  A    between atoms: O_4  and  C_18 
REMARK    3  A    between atoms: O_5  and  C_17 
REMARK    4  A    between atoms: O_7  and  C_23 
REMARK    5  A    between atoms: N_8  and  CA_10 
REMARK    6  A    between atoms: C_9  and  CA_10 
REMARK    7  A    between atoms: C_9  and  C_11 
REMARK    8  A    between atoms: CA_10  and  C_17 
ROOT
ATOM      1  I   UNL d   1      10.696  13.997   1.793  0.00  0.00    -0.042 I 
ATOM      2  I   UNL d   1       6.259  17.945   0.388  0.00  0.00    -0.042 I 
ATOM      3  C   UNL d   1       7.280  15.618   3.886  0.00  0.00    -0.053 A 
ATOM      4  C   UNL d   1       6.666  16.478   2.989  0.00  0.00     0.028 A 
ATOM      5  C   UNL d   1       8.423  14.914   3.545  0.00  0.00     0.028 A 
ATOM      6  C   UNL d   1       8.364  15.936   1.356  0.00  0.00     0.109 A 
ATOM      7  C   UNL d   1       8.968  15.075   2.271  0.00  0.00     0.042 A 
ATOM      8  C   UNL d   1       7.212  16.638   1.715  0.00  0.00     0.042 A 
ENDROOT
BRANCH   6   9
ATOM      9  O   UNL d   1       8.898  16.094   0.109  0.00  0.00    -0.308 OA
BRANCH   9  10
ATOM     10  C   UNL d   1       8.704  15.073  -0.803  0.00  0.00     0.077 A 
ATOM     11  C   UNL d   1       9.687  14.807  -1.740  0.00  0.00     0.058 A 
ATOM     12  C   UNL d   1       9.490  13.777  -2.660  0.00  0.00     0.042 A 
ATOM     13  I   UNL d   1      10.988  13.395  -4.066  0.00  0.00    -0.042 I 
ATOM     14  C   UNL d   1       8.312  13.030  -2.628  0.00  0.00     0.082 A 
ATOM     15  C   UNL d   1       7.332  13.312  -1.677  0.00  0.00     0.040 A 
ATOM     16  C   UNL d   1       7.530  14.342  -0.757  0.00  0.00     0.040 A 
BRANCH  14  17
ATOM     17  O   UNL d   1       8.081  12.015  -3.509  0.00  0.00    -0.359 OA
ATOM     18  H   UNL d   1       7.693  11.260  -3.035  0.00  0.00     0.217 HD
ENDBRANCH  14  17
ENDBRANCH   9  10
ENDBRANCH   6   9
BRANCH   3  19
ATOM     19  C   UNL d   1       6.688  15.445   5.265  0.00  0.00     0.085 C 
BRANCH  19  20
ATOM     20  CA  UNL d   1       7.649  14.752   6.244  0.00  0.00     0.318 C 
BRANCH  20  21
ATOM     21  N   UNL d   1       7.185  13.393   6.514  0.00  0.00     0.093 N 
ATOM     22  H1  UNL d   1       7.986  12.772   6.620  0.00  0.00     0.314 HD
ATOM     23  H2  UNL d   1       6.664  13.040   5.711  0.00  0.00     0.314 HD
ENDBRANCH  20  21
BRANCH  20  24
ATOM     24  C   UNL d   1       7.711  15.465   7.584  0.00  0.00     0.174 C 
ATOM     25  OXT UNL d   1       8.281  16.529   7.784  0.00  0.00    -0.648 OA
BRANCH  24  26
ATOM     26  O   UNL d   1       7.025  14.804   8.553  0.00  0.00    -0.775 OA
ATOM     27  H   UNL d   1       7.603  14.557   9.306  0.00  0.00     0.167 HD
ENDBRANCH  24  26
ENDBRANCH  20  24
ENDBRANCH  19  20
ENDBRANCH   3  19
TORSDOF 8
ENDMDL
MODEL 2
REMARK VINA RESULT:      -5.6      0.327      2.081
REMARK  8 active torsions:
REMARK  status: ('A' for Active; 'I' for Inactive)
REMARK    1  A    between atoms: O_4  and  C_14 
REMARK    2  A    between atoms: O_4  and  C_18 
REMARK    3  A    between atoms: O_5  and  C_17 
REMARK    4  A    between atoms: O_7  and  C_23 
REMARK    5  A    between atoms: N_8  and  CA_10 
REMARK    6  A    between atoms: C_9  and  CA_10 
REMARK    7  A    between atoms: C_9  and  C_11 
REMARK    8  A    between atoms: CA_10  and  C_17 
ROOT
ATOM      1  I   UNL d   1       5.781  17.591   0.299  0.00  0.00    -0.042 I 
ATOM      2  I   UNL d   1      10.641  14.244   1.856  0.00  0.00    -0.042 I 
ATOM      3  C   UNL d   1       7.128  15.674   3.930  0.00  0.00    -0.053 A 
ATOM      4  C   UNL d   1       8.330  15.065   3.607  0.00  0.00     0.028 A 
ATOM      5  C   UNL d   1       6.406  16.390   2.991  0.00  0.00     0.028 A 
ATOM      6  C   UNL d   1       8.108  15.895   1.349  0.00  0.00     0.109 A 
ATOM      7  C   UNL d   1       6.899  16.502   1.691  0.00  0.00     0.042 A 
ATOM      8  C   UNL d   1       8.823  15.177   2.307  0.00  0.00     0.042 A 
ENDROOT
BRANCH   6   9
ATOM      9  O   UNL d   1       8.591  16.004   0.076  0.00  0.00    -0.308 OA
BRANCH   9  10
ATOM     10  C   UNL d   1       8.421  14.920  -0.766  0.00  0.00     0.077 A 
ATOM     11  C   UNL d   1       9.303  14.736  -1.817  0.00  0.00     0.058 A 
ATOM     12  C   UNL d   1       9.132  13.643  -2.666  0.00  0.00     0.042 A 
ATOM     13  I   UNL d   1      10.475  13.386  -4.247  0.00  0.00    -0.042 I 
ATOM     14  C   UNL d   1       8.081  12.750  -2.450  0.00  0.00     0.082 A 
ATOM     15  C   UNL d   1       7.203  12.951  -1.386  0.00  0.00     0.040 A 
ATOM     16  C   UNL d   1       7.375  14.045  -0.537  0.00  0.00     0.040 A 
BRANCH  14  17
ATOM     17  O   UNL d   1       7.879  11.669  -3.257  0.00  0.00    -0.359 OA
ATOM     18  H   UNL d   1       8.075  11.914  -4.177  0.00  0.00     0.217 HD
ENDBRANCH  14  17
ENDBRANCH   9  10
ENDBRANCH   6   9
BRANCH   3  19
ATOM     19  C   UNL d   1       6.593  15.552   5.338  0.00  0.00     0.085 C 
BRANCH  19  20
ATOM     20  CA  UNL d   1       7.549  14.800   6.278  0.00  0.00     0.318 C 
BRANCH  20  21
ATOM     21  N   UNL d   1       7.036  13.455   6.532  0.00  0.00     0.093 N 
ATOM     22  H1  UNL d   1       7.274  12.845   5.751  0.00  0.00     0.314 HD
ATOM     23  H2  UNL d   1       6.017  13.475   6.567  0.00  0.00     0.314 HD
ENDBRANCH  20  21
BRANCH  20  24
ATOM     24  C   UNL d   1       7.675  15.480   7.629  0.00  0.00     0.174 C 
ATOM     25  OXT UNL d   1       8.245  16.545   7.826  0.00  0.00    -0.648 OA
BRANCH  24  26
ATOM     26  O   UNL d   1       7.045  14.790   8.616  0.00  0.00    -0.775 OA
ATOM     27  H   UNL d   1       6.928  13.844   8.382  0.00  0.00     0.167 HD
ENDBRANCH  24  26
ENDBRANCH  20  24
ENDBRANCH  19  20
ENDBRANCH   3  19
TORSDOF 8
ENDMDL
MODEL 3
REMARK VINA RESULT:      -5.5      2.223      2.631
REMARK  8 active torsions:
REMARK  status: ('A' for Active; 'I' for Inactive)
REMARK    1  A    between atoms: O_4  and  C_14 
REMARK    2  A    between atoms: O_4  and  C_18 
REMARK    3  A    between atoms: O_5  and  C_17 
REMARK    4  A    between atoms: O_7  and  C_23 
REMARK    5  A    between atoms: N_8  and  CA_10 
REMARK    6  A    between atoms: C_9  and  CA_10 
REMARK    7  A    between atoms: C_9  and  C_11 
REMARK    8  A    between atoms: CA_10  and  C_17 
ROOT
ATOM      1  I   UNL d   1       9.919  18.609  -0.200  0.00  0.00    -0.042 I 
ATOM      2  I   UNL d   1       6.367  13.648  -0.330  0.00  0.00    -0.042 I 
ATOM      3  C   UNL d   1       7.976  16.169   2.792  0.00  0.00    -0.053 A 
ATOM      4  C   UNL d   1       7.309  15.177   2.089  0.00  0.00     0.028 A 
ATOM      5  C   UNL d   1       8.716  17.142   2.141  0.00  0.00     0.028 A 
ATOM      6  C   UNL d   1       8.128  16.132   0.026  0.00  0.00     0.109 A 
ATOM      7  C   UNL d   1       8.793  17.123   0.748  0.00  0.00     0.042 A 
ATOM      8  C   UNL d   1       7.387  15.159   0.696  0.00  0.00     0.042 A 
ENDROOT
BRANCH   6   9
ATOM      9  O   UNL d   1       8.203  16.114  -1.338  0.00  0.00    -0.308 OA
BRANCH   9  10
ATOM     10  C   UNL d   1       9.148  15.286  -1.915  0.00  0.00     0.077 A 
ATOM     11  C   UNL d   1       9.053  14.987  -3.263  0.00  0.00     0.058 A 
ATOM     12  C   UNL d   1      10.007  14.153  -3.845  0.00  0.00     0.042 A 
ATOM     13  I   UNL d   1       9.842  13.715  -5.881  0.00  0.00    -0.042 I 
ATOM     14  C   UNL d   1      11.042  13.630  -3.068  0.00  0.00     0.082 A 
ATOM     15  C   UNL d   1      11.123  13.942  -1.712  0.00  0.00     0.040 A 
ATOM     16  C   UNL d   1      10.168  14.777  -1.131  0.00  0.00     0.040 A 
BRANCH  14  17
ATOM     17  O   UNL d   1      11.994  12.810  -3.598  0.00  0.00    -0.359 OA
ATOM     18  H   UNL d   1      12.696  13.351  -4.000  0.00  0.00     0.217 HD
ENDBRANCH  14  17
ENDBRANCH   9  10
ENDBRANCH   6   9
BRANCH   3  19
ATOM     19  C   UNL d   1       7.892  16.189   4.300  0.00  0.00     0.085 C 
BRANCH  19  20
ATOM     20  CA  UNL d   1       8.901  15.242   4.968  0.00  0.00     0.318 C 
BRANCH  20  21
ATOM     21  N   UNL d   1       8.203  14.081   5.516  0.00  0.00     0.093 N 
ATOM     22  H1  UNL d   1       8.067  13.387   4.783  0.00  0.00     0.314 HD
ATOM     23  H2  UNL d   1       7.267  14.352   5.819  0.00  0.00     0.314 HD
ENDBRANCH  20  21
BRANCH  20  24
ATOM     24  C   UNL d   1       9.624  15.903   6.128  0.00  0.00     0.174 C 
ATOM     25  OXT UNL d   1      10.828  16.120   6.170  0.00  0.00    -0.648 OA
BRANCH  24  26
ATOM     26  O   UNL d   1       8.775  16.272   7.123  0.00  0.00    -0.775 OA
ATOM     27  H   UNL d   1       9.007  15.847   7.976  0.00  0.00     0.167 HD
ENDBRANCH  24  26
ENDBRANCH  20  24
ENDBRANCH  19  20
ENDBRANCH   3  19
TORSDOF 8
ENDMDL
MODEL 4
REMARK VINA RESULT:      -5.5      4.418      8.829
REMARK  8 active torsions:
REMARK  status: ('A' for Active; 'I' for Inactive)
REMARK    1  A    between atoms: O_4  and  C_14 
REMARK    2  A    between atoms: O_4  and  C_18 
REMARK    3  A    between atoms: O_5  and  C_17 
REMARK    4  A    between atoms: O_7  and  C_23 
REMARK    5  A    between atoms: N_8  and  CA_10 
REMARK    6  A    between atoms: C_9  and  CA_10 
REMARK    7  A    between atoms: C_9  and  C_11 
REMARK    8  A    between atoms: CA_10  and  C_17 
ROOT
ATOM      1  I   UNL d   1       7.403  16.988  -2.934  0.00  0.00    -0.042 I 
ATOM      2  I   UNL d   1      10.514  13.813   1.248  0.00  0.00    -0.042 I 
ATOM      3  C   UNL d   1      10.643  14.130  -3.061  0.00  0.00    -0.053 A 
ATOM      4  C   UNL d   1      10.886  13.783  -1.742  0.00  0.00     0.028 A 
ATOM      5  C   UNL d   1       9.654  15.040  -3.398  0.00  0.00     0.028 A 
ATOM      6  C   UNL d   1       9.118  15.279  -1.055  0.00  0.00     0.109 A 
ATOM      7  C   UNL d   1       8.886  15.618  -2.387  0.00  0.00     0.042 A 
ATOM      8  C   UNL d   1      10.118  14.362  -0.732  0.00  0.00     0.042 A 
ENDROOT
BRANCH   6   9
ATOM      9  O   UNL d   1       8.367  15.846  -0.065  0.00  0.00    -0.308 OA
BRANCH   9  10
ATOM     10  C   UNL d   1       8.922  16.904   0.632  0.00  0.00     0.077 A 
ATOM     11  C   UNL d   1       8.452  17.200   1.900  0.00  0.00     0.058 A 
ATOM     12  C   UNL d   1       9.012  18.266   2.602  0.00  0.00     0.042 A 
ATOM     13  I   UNL d   1       8.285  18.694   4.514  0.00  0.00    -0.042 I 
ATOM     14  C   UNL d   1      10.035  19.021   2.026  0.00  0.00     0.082 A 
ATOM     15  C   UNL d   1      10.496  18.708   0.748  0.00  0.00     0.040 A 
ATOM     16  C   UNL d   1       9.935  17.641   0.046  0.00  0.00     0.040 A 
BRANCH  14  17
ATOM     17  O   UNL d   1      10.609  20.071   2.679  0.00  0.00    -0.359 OA
ATOM     18  H   UNL d   1      11.340  19.744   3.231  0.00  0.00     0.217 HD
ENDBRANCH  14  17
ENDBRANCH   9  10
ENDBRANCH   6   9
BRANCH   3  19
ATOM     19  C   UNL d   1      11.475  13.503  -4.156  0.00  0.00     0.085 C 
BRANCH  19  20
ATOM     20  CA  UNL d   1      10.946  12.130  -4.597  0.00  0.00     0.318 C 
BRANCH  20  21
ATOM     21  N   UNL d   1      11.968  11.110  -4.372  0.00  0.00     0.093 N 
ATOM     22  H1  UNL d   1      11.592  10.374  -3.777  0.00  0.00     0.314 HD
ATOM     23  H2  UNL d   1      12.750  11.513  -3.854  0.00  0.00     0.314 HD
ENDBRANCH  20  21
BRANCH  20  24
ATOM     24  C   UNL d   1      10.614  12.094  -6.078  0.00  0.00     0.174 C 
ATOM     25  OXT UNL d   1      10.679  11.097  -6.786  0.00  0.00    -0.648 OA
BRANCH  24  26
ATOM     26  O   UNL d   1      10.194  13.300  -6.543  0.00  0.00    -0.775 OA
ATOM     27  H   UNL d   1       9.783  13.226  -7.430  0.00  0.00     0.167 HD
ENDBRANCH  24  26
ENDBRANCH  20  24
ENDBRANCH  19  20
ENDBRANCH   3  19
TORSDOF 8
ENDMDL
MODEL 5
REMARK VINA RESULT:      -5.3      4.861      8.295
REMARK  8 active torsions:
REMARK  status: ('A' for Active; 'I' for Inactive)
REMARK    1  A    between atoms: O_4  and  C_14 
REMARK    2  A    between atoms: O_4  and  C_18 
REMARK    3  A    between atoms: O_5  and  C_17 
REMARK    4  A    between atoms: O_7  and  C_23 
REMARK    5  A    between atoms: N_8  and  CA_10 
REMARK    6  A    between atoms: C_9  and  CA_10 
REMARK    7  A    between atoms: C_9  and  C_11 
REMARK    8  A    between atoms: CA_10  and  C_17 
ROOT
ATOM      1  I   UNL d   1       6.823  16.087  -3.396  0.00  0.00    -0.042 I 
ATOM      2  I   UNL d   1      10.260  13.955   1.176  0.00  0.00    -0.042 I 
ATOM      3  C   UNL d   1      10.504  13.834  -3.139  0.00  0.00    -0.053 A 
ATOM      4  C   UNL d   1      10.749  13.675  -1.785  0.00  0.00     0.028 A 
ATOM      5  C   UNL d   1       9.389  14.519  -3.595  0.00  0.00     0.028 A 
ATOM      6  C   UNL d   1       8.728  14.907  -1.304  0.00  0.00     0.109 A 
ATOM      7  C   UNL d   1       8.495  15.059  -2.670  0.00  0.00     0.042 A 
ATOM      8  C   UNL d   1       9.855  14.215  -0.861  0.00  0.00     0.042 A 
ENDROOT
BRANCH   6   9
ATOM      9  O   UNL d   1       7.852  15.437  -0.398  0.00  0.00    -0.308 OA
BRANCH   9  10
ATOM     10  C   UNL d   1       6.702  14.719  -0.127  0.00  0.00     0.077 A 
ATOM     11  C   UNL d   1       6.600  13.411  -0.569  0.00  0.00     0.058 A 
ATOM     12  C   UNL d   1       5.440  12.688  -0.295  0.00  0.00     0.042 A 
ATOM     13  I   UNL d   1       5.310  10.716  -0.973  0.00  0.00    -0.042 I 
ATOM     14  C   UNL d   1       4.399  13.284   0.418  0.00  0.00     0.082 A 
ATOM     15  C   UNL d   1       4.519  14.602   0.857  0.00  0.00     0.040 A 
ATOM     16  C   UNL d   1       5.680  15.325   0.582  0.00  0.00     0.040 A 
BRANCH  14  17
ATOM     17  O   UNL d   1       3.249  12.611   0.707  0.00  0.00    -0.359 OA
ATOM     18  H   UNL d   1       3.135  12.569   1.672  0.00  0.00     0.217 HD
ENDBRANCH  14  17
ENDBRANCH   9  10
ENDBRANCH   6   9
BRANCH   3  19
ATOM     19  C   UNL d   1      11.473  13.250  -4.140  0.00  0.00     0.085 C 
BRANCH  19  20
ATOM     20  CA  UNL d   1      11.056  11.855  -4.631  0.00  0.00     0.318 C 
BRANCH  20  21
ATOM     21  N   UNL d   1      12.184  10.933  -4.517  0.00  0.00     0.093 N 
ATOM     22  H1  UNL d   1      12.954  11.261  -5.098  0.00  0.00     0.314 HD
ATOM     23  H2  UNL d   1      11.924  10.020  -4.892  0.00  0.00     0.314 HD
ENDBRANCH  20  21
BRANCH  20  24
ATOM     24  C   UNL d   1      10.645  11.862  -6.093  0.00  0.00     0.174 C 
ATOM     25  OXT UNL d   1       9.865  12.660  -6.596  0.00  0.00    -0.648 OA
BRANCH  24  26
ATOM     26  O   UNL d   1      11.273  10.895  -6.811  0.00  0.00    -0.775 OA
ATOM     27  H   UNL d   1      12.138  11.202  -7.159  0.00  0.00     0.167 HD
ENDBRANCH  24  26
ENDBRANCH  20  24
ENDBRANCH  19  20
ENDBRANCH   3  19
TORSDOF 8
ENDMDL
MODEL 6
REMARK VINA RESULT:      -5.3     18.208     19.744
REMARK  8 active torsions:
REMARK  status: ('A' for Active; 'I' for Inactive)
REMARK    1  A    between atoms: O_4  and  C_14 
REMARK    2  A    between atoms: O_4  and  C_18 
REMARK    3  A    between atoms: O_5  and  C_17 
REMARK    4  A    between atoms: O_7  and  C_23 
REMARK    5  A    between atoms: N_8  and  CA_10 
REMARK    6  A    between atoms: C_9  and  CA_10 
REMARK    7  A    between atoms: C_9  and  C_11 
REMARK    8  A    between atoms: CA_10  and  C_17 
ROOT
ATOM      1  I   UNL d   1       0.898  -4.642   4.858  0.00  0.00    -0.042 I 
ATOM      2  I   UNL d   1       5.735  -3.831   1.225  0.00  0.00    -0.042 I 
ATOM      3  C   UNL d   1       2.642  -1.259   2.809  0.00  0.00    -0.053 A 
ATOM      4  C   UNL d   1       3.749  -1.758   2.141  0.00  0.00     0.028 A 
ATOM      5  C   UNL d   1       1.834  -2.079   3.579  0.00  0.00     0.028 A 
ATOM      6  C   UNL d   1       3.251  -3.953   3.019  0.00  0.00     0.109 A 
ATOM      7  C   UNL d   1       2.141  -3.435   3.685  0.00  0.00     0.042 A 
ATOM      8  C   UNL d   1       4.055  -3.114   2.247  0.00  0.00     0.042 A 
ENDROOT
BRANCH   6   9
ATOM      9  O   UNL d   1       3.552  -5.281   3.123  0.00  0.00    -0.308 OA
BRANCH   9  10
ATOM     10  C   UNL d   1       4.152  -5.711   4.292  0.00  0.00     0.077 A 
ATOM     11  C   UNL d   1       3.802  -6.942   4.819  0.00  0.00     0.058 A 
ATOM     12  C   UNL d   1       4.407  -7.375   5.999  0.00  0.00     0.042 A 
ATOM     13  I   UNL d   1       3.861  -9.236   6.776  0.00  0.00    -0.042 I 
ATOM     14  C   UNL d   1       5.353  -6.569   6.634  0.00  0.00     0.082 A 
ATOM     15  C   UNL d   1       5.694  -5.332   6.088  0.00  0.00     0.040 A 
ATOM     16  C   UNL d   1       5.089  -4.900   4.908  0.00  0.00     0.040 A 
BRANCH  14  17
ATOM     17  O   UNL d   1       5.968  -6.955   7.788  0.00  0.00    -0.359 OA
ATOM     18  H   UNL d   1       6.322  -7.854   7.678  0.00  0.00     0.217 HD
ENDBRANCH  14  17
ENDBRANCH   9  10
ENDBRANCH   6   9
BRANCH   3  19
ATOM     19  C   UNL d   1       2.310   0.211   2.695  0.00  0.00     0.085 C 
BRANCH  19  20
ATOM     20  CA  UNL d   1       3.348   1.113   3.380  0.00  0.00     0.318 C 
BRANCH  20  21
ATOM     21  N   UNL d   1       2.687   1.975   4.356  0.00  0.00     0.093 N 
ATOM     22  H1  UNL d   1       3.195   1.946   5.238  0.00  0.00     0.314 HD
ATOM     23  H2  UNL d   1       1.755   1.614   4.561  0.00  0.00     0.314 HD
ENDBRANCH  20  21
BRANCH  20  24
ATOM     24  C   UNL d   1       4.049   2.030   2.393  0.00  0.00     0.174 C 
ATOM     25  OXT UNL d   1       3.668   2.249   1.250  0.00  0.00    -0.648 OA
BRANCH  24  26
ATOM     26  O   UNL d   1       5.147   2.624   2.929  0.00  0.00    -0.775 OA
ATOM     27  H   UNL d   1       5.897   2.642   2.297  0.00  0.00     0.167 HD
ENDBRANCH  24  26
ENDBRANCH  20  24
ENDBRANCH  19  20
ENDBRANCH   3  19
TORSDOF 8
ENDMDL
MODEL 7
REMARK VINA RESULT:      -5.3      3.291      7.696
REMARK  8 active torsions:
REMARK  status: ('A' for Active; 'I' for Inactive)
REMARK    1  A    between atoms: O_4  and  C_14 
REMARK    2  A    between atoms: O_4  and  C_18 
REMARK    3  A    between atoms: O_5  and  C_17 
REMARK    4  A    between atoms: O_7  and  C_23 
REMARK    5  A    between atoms: N_8  and  CA_10 
REMARK    6  A    between atoms: C_9  and  CA_10 
REMARK    7  A    between atoms: C_9  and  C_11 
REMARK    8  A    between atoms: CA_10  and  C_17 
ROOT
ATOM      1  I   UNL d   1       4.819  16.325   1.304  0.00  0.00    -0.042 I 
ATOM      2  I   UNL d   1      10.370  13.982   0.333  0.00  0.00    -0.042 I 
ATOM      3  C   UNL d   1       6.322  12.562  -0.198  0.00  0.00    -0.053 A 
ATOM      4  C   UNL d   1       7.703  12.671  -0.165  0.00  0.00     0.028 A 
ATOM      5  C   UNL d   1       5.505  13.599   0.219  0.00  0.00     0.028 A 
ATOM      6  C   UNL d   1       7.473  14.907   0.723  0.00  0.00     0.109 A 
ATOM      7  C   UNL d   1       6.085  14.780   0.683  0.00  0.00     0.042 A 
ATOM      8  C   UNL d   1       8.282  13.852   0.299  0.00  0.00     0.042 A 
ENDROOT
BRANCH   6   9
ATOM      9  O   UNL d   1       8.041  16.063   1.177  0.00  0.00    -0.308 OA
BRANCH   9  10
ATOM     10  C   UNL d   1       8.626  16.039   2.430  0.00  0.00     0.077 A 
ATOM     11  C   UNL d   1       8.092  15.221   3.410  0.00  0.00     0.058 A 
ATOM     12  C   UNL d   1       8.682  15.197   4.673  0.00  0.00     0.042 A 
ATOM     13  I   UNL d   1       7.857  13.954   6.137  0.00  0.00    -0.042 I 
ATOM     14  C   UNL d   1       9.798  15.992   4.936  0.00  0.00     0.082 A 
ATOM     15  C   UNL d   1      10.323  16.810   3.937  0.00  0.00     0.040 A 
ATOM     16  C   UNL d   1       9.732  16.834   2.673  0.00  0.00     0.040 A 
BRANCH  14  17
ATOM     17  O   UNL d   1      10.405  15.998   6.158  0.00  0.00    -0.359 OA
ATOM     18  H   UNL d   1      11.211  16.539   6.113  0.00  0.00     0.217 HD
ENDBRANCH  14  17
ENDBRANCH   9  10
ENDBRANCH   6   9
BRANCH   3  19
ATOM     19  C   UNL d   1       5.694  11.283  -0.701  0.00  0.00     0.085 C 
BRANCH  19  20
ATOM     20  CA  UNL d   1       6.316  10.789  -2.017  0.00  0.00     0.318 C 
BRANCH  20  21
ATOM     21  N   UNL d   1       5.992  11.718  -3.097  0.00  0.00     0.093 N 
ATOM     22  H1  UNL d   1       5.252  11.325  -3.676  0.00  0.00     0.314 HD
ATOM     23  H2  UNL d   1       6.798  11.827  -3.712  0.00  0.00     0.314 HD
ENDBRANCH  20  21
BRANCH  20  24
ATOM     24  C   UNL d   1       5.773   9.433  -2.432  0.00  0.00     0.174 C 
ATOM     25  OXT UNL d   1       4.647   9.023  -2.180  0.00  0.00    -0.648 OA
BRANCH  24  26
ATOM     26  O   UNL d   1       6.671   8.717  -3.159  0.00  0.00    -0.775 OA
ATOM     27  H   UNL d   1       7.564   9.122  -3.136  0.00  0.00     0.167 HD
ENDBRANCH  24  26
ENDBRANCH  20  24
ENDBRANCH  19  20
ENDBRANCH   3  19
TORSDOF 8
ENDMDL
MODEL 8
REMARK VINA RESULT:      -5.2      5.877     10.749
REMARK  8 active torsions:
REMARK  status: ('A' for Active; 'I' for Inactive)
REMARK    1  A    between atoms: O_4  and  C_14 
REMARK    2  A    between atoms: O_4  and  C_18 
REMARK    3  A    between atoms: O_5  and  C_17 
REMARK    4  A    between atoms: O_7  and  C_23 
REMARK    5  A    between atoms: N_8  and  CA_10 
REMARK    6  A    between atoms: C_9  and  CA_10 
REMARK    7  A    between atoms: C_9  and  C_11 
REMARK    8  A    between atoms: CA_10  and  C_17 
ROOT
ATOM      1  I   UNL d   1      11.770  11.939  -4.122  0.00  0.00    -0.042 I 
ATOM      2  I   UNL d   1       7.808  16.190  -5.988  0.00  0.00    -0.042 I 
ATOM      3  C   UNL d   1       9.392  12.541  -7.680  0.00  0.00    -0.053 A 
ATOM      4  C   UNL d   1       8.695  13.720  -7.468  0.00  0.00     0.028 A 
ATOM      5  C   UNL d   1      10.264  12.037  -6.730  0.00  0.00     0.028 A 
ATOM      6  C   UNL d   1       9.752  13.919  -5.305  0.00  0.00     0.109 A 
ATOM      7  C   UNL d   1      10.445  12.731  -5.534  0.00  0.00     0.042 A 
ATOM      8  C   UNL d   1       8.877  14.414  -6.272  0.00  0.00     0.042 A 
ENDROOT
BRANCH   6   9
ATOM      9  O   UNL d   1       9.929  14.599  -4.133  0.00  0.00    -0.308 OA
BRANCH   9  10
ATOM     10  C   UNL d   1       9.322  14.089  -3.001  0.00  0.00     0.077 A 
ATOM     11  C   UNL d   1       9.915  14.290  -1.766  0.00  0.00     0.058 A 
ATOM     12  C   UNL d   1       9.302  13.775  -0.625  0.00  0.00     0.042 A 
ATOM     13  I   UNL d   1      10.217  14.090   1.228  0.00  0.00    -0.042 I 
ATOM     14  C   UNL d   1       8.105  13.067  -0.735  0.00  0.00     0.082 A 
ATOM     15  C   UNL d   1       7.521  12.875  -1.986  0.00  0.00     0.040 A 
ATOM     16  C   UNL d   1       8.135  13.390  -3.128  0.00  0.00     0.040 A 
BRANCH  14  17
ATOM     17  O   UNL d   1       7.473  12.548   0.357  0.00  0.00    -0.359 OA
ATOM     18  H   UNL d   1       8.088  12.540   1.110  0.00  0.00     0.217 HD
ENDBRANCH  14  17
ENDBRANCH   9  10
ENDBRANCH   6   9
BRANCH   3  19
ATOM     19  C   UNL d   1       9.194  11.789  -8.976  0.00  0.00     0.085 C 
BRANCH  19  20
ATOM     20  CA  UNL d   1      10.411  10.933  -9.361  0.00  0.00     0.318 C 
BRANCH  20  21
ATOM     21  N   UNL d   1      11.174  11.603 -10.412  0.00  0.00     0.093 N 
ATOM     22  H1  UNL d   1      12.145  11.702 -10.120  0.00  0.00     0.314 HD
ATOM     23  H2  UNL d   1      10.824  12.552 -10.541  0.00  0.00     0.314 HD
ENDBRANCH  20  21
BRANCH  20  24
ATOM     24  C   UNL d   1      10.005   9.578  -9.914  0.00  0.00     0.174 C 
ATOM     25  OXT UNL d   1      10.785   8.719 -10.305  0.00  0.00    -0.648 OA
BRANCH  24  26
ATOM     26  O   UNL d   1       8.658   9.397  -9.899  0.00  0.00    -0.775 OA
ATOM     27  H   UNL d   1       8.175  10.231 -10.081  0.00  0.00     0.167 HD
ENDBRANCH  24  26
ENDBRANCH  20  24
ENDBRANCH  19  20
ENDBRANCH   3  19
TORSDOF 8
ENDMDL
MODEL 9
REMARK VINA RESULT:      -5.2      1.933      2.030
REMARK  8 active torsions:
REMARK  status: ('A' for Active; 'I' for Inactive)
REMARK    1  A    between atoms: O_4  and  C_14 
REMARK    2  A    between atoms: O_4  and  C_18 
REMARK    3  A    between atoms: O_5  and  C_17 
REMARK    4  A    between atoms: O_7  and  C_23 
REMARK    5  A    between atoms: N_8  and  CA_10 
REMARK    6  A    between atoms: C_9  and  CA_10 
REMARK    7  A    between atoms: C_9  and  C_11 
REMARK    8  A    between atoms: CA_10  and  C_17 
ROOT
ATOM      1  I   UNL d   1       9.208  13.330   1.305  0.00  0.00    -0.042 I 
ATOM      2  I   UNL d   1      10.015  19.321   2.148  0.00  0.00    -0.042 I 
ATOM      3  C   UNL d   1       7.966  16.183   4.304  0.00  0.00    -0.053 A 
ATOM      4  C   UNL d   1       8.490  17.401   3.900  0.00  0.00     0.028 A 
ATOM      5  C   UNL d   1       8.171  15.029   3.567  0.00  0.00     0.028 A 
ATOM      6  C   UNL d   1       9.454  16.311   1.971  0.00  0.00     0.109 A 
ATOM      7  C   UNL d   1       8.920  15.094   2.392  0.00  0.00     0.042 A 
ATOM      8  C   UNL d   1       9.239  17.465   2.725  0.00  0.00     0.042 A 
ENDROOT
BRANCH   6   9
ATOM      9  O   UNL d   1      10.188  16.375   0.821  0.00  0.00    -0.308 OA
BRANCH   9  10
ATOM     10  C   UNL d   1       9.506  16.290  -0.378  0.00  0.00     0.077 A 
ATOM     11  C   UNL d   1      10.021  15.506  -1.396  0.00  0.00     0.058 A 
ATOM     12  C   UNL d   1       9.332  15.421  -2.605  0.00  0.00     0.042 A 
ATOM     13  I   UNL d   1      10.130  14.232  -4.128  0.00  0.00    -0.042 I 
ATOM     14  C   UNL d   1       8.137  16.122  -2.778  0.00  0.00     0.082 A 
ATOM     15  C   UNL d   1       7.633  16.906  -1.742  0.00  0.00     0.040 A 
ATOM     16  C   UNL d   1       8.323  16.991  -0.532  0.00  0.00     0.040 A 
BRANCH  14  17
ATOM     17  O   UNL d   1       7.433  16.065  -3.945  0.00  0.00    -0.359 OA
ATOM     18  H   UNL d   1       8.010  15.729  -4.652  0.00  0.00     0.217 HD
ENDBRANCH  14  17
ENDBRANCH   9  10
ENDBRANCH   6   9
BRANCH   3  19
ATOM     19  C   UNL d   1       7.154  16.114   5.577  0.00  0.00     0.085 C 
BRANCH  19  20
ATOM     20  CA  UNL d   1       7.792  15.210   6.643  0.00  0.00     0.318 C 
BRANCH  20  21
ATOM     21  N   UNL d   1       7.159  13.893   6.618  0.00  0.00     0.093 N 
ATOM     22  H1  UNL d   1       6.245  13.962   6.174  0.00  0.00     0.314 HD
ATOM     23  H2  UNL d   1       6.981  13.577   7.572  0.00  0.00     0.314 HD
ENDBRANCH  20  21
BRANCH  20  24
ATOM     24  C   UNL d   1       7.600  15.758   8.046  0.00  0.00     0.174 C 
ATOM     25  OXT UNL d   1       7.960  16.867   8.419  0.00  0.00    -0.648 OA
BRANCH  24  26
ATOM     26  O   UNL d   1       6.941  14.888   8.856  0.00  0.00    -0.775 OA
ATOM     27  H   UNL d   1       7.548  14.225   9.249  0.00  0.00     0.167 HD
ENDBRANCH  24  26
ENDBRANCH  20  24
ENDBRANCH  19  20
ENDBRANCH   3  19
TORSDOF 8
ENDMDL
