MODEL 1
REMARK VINA RESULT:      -3.9      0.000      0.000
REMARK  12 active torsions:
REMARK  status: ('A' for Active; 'I' for Inactive)
REMARK    1  A    between atoms: P_4  and  O_5 
REMARK    2  A    between atoms: P_4  and  O_6 
REMARK    3  A    between atoms: P_4  and  O_7 
REMARK    4  A    between atoms: O_5  and  C_9 
REMARK    5  A    between atoms: O_6  and  C_10 
REMARK    6  A    between atoms: O_7  and  C_11 
REMARK    7  A    between atoms: C_9  and  C_12 
REMARK    8  A    between atoms: C_10  and  C_13 
REMARK    9  A    between atoms: C_11  and  C_14 
REMARK   10  A    between atoms: C_12  and  C_15 
REMARK   11  A    between atoms: C_13  and  C_16 
REMARK   12  A    between atoms: C_14  and  C_17 
ROOT
ATOM      1  P   UNL d   1      10.152  14.231  -2.456  0.00  0.00     0.477 P 
ATOM      2  O   UNL d   1       9.644  15.632  -2.640  0.00  0.00    -0.227 OA
ENDROOT
BRANCH   1   3
ATOM      3  O   UNL d   1      11.240  13.763  -3.563  0.00  0.00    -0.292 OA
BRANCH   3   4
ATOM      4  C   UNL d   1      10.962  13.922  -4.945  0.00  0.00     0.181 C 
BRANCH   4   5
ATOM      5  C   UNL d   1      10.507  12.581  -5.508  0.00  0.00     0.042 C 
BRANCH   5   6
ATOM      6  C   UNL d   1      11.255  11.390  -4.925  0.00  0.00     0.116 C 
ATOM      7 CL   UNL d   1      11.828  10.278  -6.189  0.00  0.00    -0.130 Cl
ENDBRANCH   5   6
ENDBRANCH   4   5
ENDBRANCH   3   4
ENDBRANCH   1   3
BRANCH   1   8
ATOM      8  O   UNL d   1       9.008  13.085  -2.505  0.00  0.00    -0.292 OA
BRANCH   8   9
ATOM      9  C   UNL d   1       7.656  13.487  -2.641  0.00  0.00     0.181 C 
BRANCH   9  10
ATOM     10  C   UNL d   1       6.988  13.430  -1.272  0.00  0.00     0.042 C 
BRANCH  10  11
ATOM     11  C   UNL d   1       7.111  12.074  -0.589  0.00  0.00     0.116 C 
ATOM     12 CL   UNL d   1       6.579  10.746  -1.645  0.00  0.00    -0.130 Cl
ENDBRANCH  10  11
ENDBRANCH   9  10
ENDBRANCH   8   9
ENDBRANCH   1   8
BRANCH   1  13
ATOM     13  O   UNL d   1      10.879  13.957  -1.034  0.00  0.00    -0.292 OA
BRANCH  13  14
ATOM     14  C   UNL d   1      10.357  14.588   0.123  0.00  0.00     0.181 C 
BRANCH  14  15
ATOM     15  C   UNL d   1      10.306  13.569   1.255  0.00  0.00     0.042 C 
BRANCH  15  16
ATOM     16  C   UNL d   1       9.031  13.639   2.083  0.00  0.00     0.116 C 
ATOM     17 CL   UNL d   1       9.180  14.781   3.439  0.00  0.00    -0.130 Cl
ENDBRANCH  15  16
ENDBRANCH  14  15
ENDBRANCH  13  14
ENDBRANCH   1  13
TORSDOF 12
ENDMDL
MODEL 2
REMARK VINA RESULT:      -3.9      1.951      5.459
REMARK  12 active torsions:
REMARK  status: ('A' for Active; 'I' for Inactive)
REMARK    1  A    between atoms: P_4  and  O_5 
REMARK    2  A    between atoms: P_4  and  O_6 
REMARK    3  A    between atoms: P_4  and  O_7 
REMARK    4  A    between atoms: O_5  and  C_9 
REMARK    5  A    between atoms: O_6  and  C_10 
REMARK    6  A    between atoms: O_7  and  C_11 
REMARK    7  A    between atoms: C_9  and  C_12 
REMARK    8  A    between atoms: C_10  and  C_13 
REMARK    9  A    between atoms: C_11  and  C_14 
REMARK   10  A    between atoms: C_12  and  C_15 
REMARK   11  A    between atoms: C_13  and  C_16 
REMARK   12  A    between atoms: C_14  and  C_17 
ROOT
ATOM      1  P   UNL d   1      10.356  14.264  -1.069  0.00  0.00     0.477 P 
ATOM      2  O   UNL d   1      10.162  15.747  -0.932  0.00  0.00    -0.227 OA
ENDROOT
BRANCH   1   3
ATOM      3  O   UNL d   1       9.044  13.463  -1.585  0.00  0.00    -0.292 OA
BRANCH   3   4
ATOM      4  C   UNL d   1       7.752  14.018  -1.397  0.00  0.00     0.181 C 
BRANCH   4   5
ATOM      5  C   UNL d   1       7.111  14.235  -2.763  0.00  0.00     0.042 C 
BRANCH   5   6
ATOM      6  C   UNL d   1       7.187  15.675  -3.249  0.00  0.00     0.116 C 
ATOM      7 CL   UNL d   1       8.470  15.904  -4.459  0.00  0.00    -0.130 Cl
ENDBRANCH   5   6
ENDBRANCH   4   5
ENDBRANCH   3   4
ENDBRANCH   1   3
BRANCH   1   8
ATOM      8  O   UNL d   1      10.778  13.508   0.301  0.00  0.00    -0.292 OA
BRANCH   8   9
ATOM      9  C   UNL d   1      10.569  14.177   1.532  0.00  0.00     0.181 C 
BRANCH   9  10
ATOM     10  C   UNL d   1       9.174  13.838   2.044  0.00  0.00     0.042 C 
BRANCH  10  11
ATOM     11  C   UNL d   1       8.769  14.627   3.282  0.00  0.00     0.116 C 
ATOM     12 CL   UNL d   1      10.069  15.704   3.840  0.00  0.00    -0.130 Cl
ENDBRANCH  10  11
ENDBRANCH   9  10
ENDBRANCH   8   9
ENDBRANCH   1   8
BRANCH   1  13
ATOM     13  O   UNL d   1      11.527  13.828  -2.099  0.00  0.00    -0.292 OA
BRANCH  13  14
ATOM     14  C   UNL d   1      11.212  13.729  -3.477  0.00  0.00     0.181 C 
BRANCH  14  15
ATOM     15  C   UNL d   1      11.632  12.352  -3.977  0.00  0.00     0.042 C 
BRANCH  15  16
ATOM     16  C   UNL d   1      10.914  11.919  -5.248  0.00  0.00     0.116 C 
ATOM     17 CL   UNL d   1      11.626  10.446  -5.946  0.00  0.00    -0.130 Cl
ENDBRANCH  15  16
ENDBRANCH  14  15
ENDBRANCH  13  14
ENDBRANCH   1  13
TORSDOF 12
ENDMDL
MODEL 3
REMARK VINA RESULT:      -3.9      1.652      5.711
REMARK  12 active torsions:
REMARK  status: ('A' for Active; 'I' for Inactive)
REMARK    1  A    between atoms: P_4  and  O_5 
REMARK    2  A    between atoms: P_4  and  O_6 
REMARK    3  A    between atoms: P_4  and  O_7 
REMARK    4  A    between atoms: O_5  and  C_9 
REMARK    5  A    between atoms: O_6  and  C_10 
REMARK    6  A    between atoms: O_7  and  C_11 
REMARK    7  A    between atoms: C_9  and  C_12 
REMARK    8  A    between atoms: C_10  and  C_13 
REMARK    9  A    between atoms: C_11  and  C_14 
REMARK   10  A    between atoms: C_12  and  C_15 
REMARK   11  A    between atoms: C_13  and  C_16 
REMARK   12  A    between atoms: C_14  and  C_17 
ROOT
ATOM      1  P   UNL d   1      10.241  14.335  -0.898  0.00  0.00     0.477 P 
ATOM      2  O   UNL d   1      10.150  15.826  -0.734  0.00  0.00    -0.227 OA
ENDROOT
BRANCH   1   3
ATOM      3  O   UNL d   1      10.499  13.525   0.483  0.00  0.00    -0.292 OA
BRANCH   3   4
ATOM      4  C   UNL d   1      10.707  14.233   1.694  0.00  0.00     0.181 C 
BRANCH   4   5
ATOM      5  C   UNL d   1       9.375  14.350   2.425  0.00  0.00     0.042 C 
BRANCH   5   6
ATOM      6  C   UNL d   1       9.040  15.772   2.857  0.00  0.00     0.116 C 
ATOM      7 CL   UNL d   1      10.394  16.890   2.575  0.00  0.00    -0.130 Cl
ENDBRANCH   5   6
ENDBRANCH   4   5
ENDBRANCH   3   4
ENDBRANCH   1   3
BRANCH   1   8
ATOM      8  O   UNL d   1      11.422  13.835  -1.887  0.00  0.00    -0.292 OA
BRANCH   8   9
ATOM      9  C   UNL d   1      11.150  13.753  -3.275  0.00  0.00     0.181 C 
BRANCH   9  10
ATOM     10  C   UNL d   1      11.784  12.480  -3.823  0.00  0.00     0.042 C 
BRANCH  10  11
ATOM     11  C   UNL d   1      10.856  11.674  -4.724  0.00  0.00     0.116 C 
ATOM     12 CL   UNL d   1      11.755  10.565  -5.785  0.00  0.00    -0.130 Cl
ENDBRANCH  10  11
ENDBRANCH   9  10
ENDBRANCH   8   9
ENDBRANCH   1   8
BRANCH   1  13
ATOM     13  O   UNL d   1       8.920  13.644  -1.531  0.00  0.00    -0.292 OA
BRANCH  13  14
ATOM     14  C   UNL d   1       8.018  12.986  -0.658  0.00  0.00     0.181 C 
BRANCH  14  15
ATOM     15  C   UNL d   1       6.882  13.941  -0.317  0.00  0.00     0.042 C 
BRANCH  15  16
ATOM     16  C   UNL d   1       5.573  13.610  -1.022  0.00  0.00     0.116 C 
ATOM     17 CL   UNL d   1       4.485  12.654   0.010  0.00  0.00    -0.130 Cl
ENDBRANCH  15  16
ENDBRANCH  14  15
ENDBRANCH  13  14
ENDBRANCH   1  13
TORSDOF 12
ENDMDL
MODEL 4
REMARK VINA RESULT:      -3.8      2.357      4.748
REMARK  12 active torsions:
REMARK  status: ('A' for Active; 'I' for Inactive)
REMARK    1  A    between atoms: P_4  and  O_5 
REMARK    2  A    between atoms: P_4  and  O_6 
REMARK    3  A    between atoms: P_4  and  O_7 
REMARK    4  A    between atoms: O_5  and  C_9 
REMARK    5  A    between atoms: O_6  and  C_10 
REMARK    6  A    between atoms: O_7  and  C_11 
REMARK    7  A    between atoms: C_9  and  C_12 
REMARK    8  A    between atoms: C_10  and  C_13 
REMARK    9  A    between atoms: C_11  and  C_14 
REMARK   10  A    between atoms: C_12  and  C_15 
REMARK   11  A    between atoms: C_13  and  C_16 
REMARK   12  A    between atoms: C_14  and  C_17 
ROOT
ATOM      1  P   UNL d   1      10.157  13.989   0.834  0.00  0.00     0.477 P 
ATOM      2  O   UNL d   1      11.326  13.283   1.460  0.00  0.00    -0.227 OA
ENDROOT
BRANCH   1   3
ATOM      3  O   UNL d   1       8.869  13.041   0.567  0.00  0.00    -0.292 OA
BRANCH   3   4
ATOM      4  C   UNL d   1       7.575  13.612   0.459  0.00  0.00     0.181 C 
BRANCH   4   5
ATOM      5  C   UNL d   1       7.167  13.621  -1.009  0.00  0.00     0.042 C 
BRANCH   5   6
ATOM      6  C   UNL d   1       7.105  12.234  -1.633  0.00  0.00     0.116 C 
ATOM      7 CL   UNL d   1       6.062  11.131  -0.706  0.00  0.00    -0.130 Cl
ENDBRANCH   5   6
ENDBRANCH   4   5
ENDBRANCH   3   4
ENDBRANCH   1   3
BRANCH   1   8
ATOM      8  O   UNL d   1      10.467  14.665  -0.605  0.00  0.00    -0.292 OA
BRANCH   8   9
ATOM      9  C   UNL d   1      10.929  13.833  -1.656  0.00  0.00     0.181 C 
BRANCH   9  10
ATOM     10  C   UNL d   1      10.349  14.340  -2.971  0.00  0.00     0.042 C 
BRANCH  10  11
ATOM     11  C   UNL d   1      11.084  13.824  -4.202  0.00  0.00     0.116 C 
ATOM     12 CL   UNL d   1      11.935  12.296  -3.877  0.00  0.00    -0.130 Cl
ENDBRANCH  10  11
ENDBRANCH   9  10
ENDBRANCH   8   9
ENDBRANCH   1   8
BRANCH   1  13
ATOM     13  O   UNL d   1       9.575  15.229   1.699  0.00  0.00    -0.292 OA
BRANCH  13  14
ATOM     14  C   UNL d   1       9.940  15.329   3.065  0.00  0.00     0.181 C 
BRANCH  14  15
ATOM     15  C   UNL d   1       8.742  14.937   3.921  0.00  0.00     0.042 C 
BRANCH  15  16
ATOM     16  C   UNL d   1       9.024  14.970   5.417  0.00  0.00     0.116 C 
ATOM     17 CL   UNL d   1       8.028  13.797   6.308  0.00  0.00    -0.130 Cl
ENDBRANCH  15  16
ENDBRANCH  14  15
ENDBRANCH  13  14
ENDBRANCH   1  13
TORSDOF 12
ENDMDL
MODEL 5
REMARK VINA RESULT:      -3.8      2.206      5.984
REMARK  12 active torsions:
REMARK  status: ('A' for Active; 'I' for Inactive)
REMARK    1  A    between atoms: P_4  and  O_5 
REMARK    2  A    between atoms: P_4  and  O_6 
REMARK    3  A    between atoms: P_4  and  O_7 
REMARK    4  A    between atoms: O_5  and  C_9 
REMARK    5  A    between atoms: O_6  and  C_10 
REMARK    6  A    between atoms: O_7  and  C_11 
REMARK    7  A    between atoms: C_9  and  C_12 
REMARK    8  A    between atoms: C_10  and  C_13 
REMARK    9  A    between atoms: C_11  and  C_14 
REMARK   10  A    between atoms: C_12  and  C_15 
REMARK   11  A    between atoms: C_13  and  C_16 
REMARK   12  A    between atoms: C_14  and  C_17 
ROOT
ATOM      1  P   UNL d   1      10.324  14.066   0.861  0.00  0.00     0.477 P 
ATOM      2  O   UNL d   1      11.215  14.218   2.061  0.00  0.00    -0.227 OA
ENDROOT
BRANCH   1   3
ATOM      3  O   UNL d   1       9.499  15.404   0.467  0.00  0.00    -0.292 OA
BRANCH   3   4
ATOM      4  C   UNL d   1       9.581  16.558   1.287  0.00  0.00     0.181 C 
BRANCH   4   5
ATOM      5  C   UNL d   1       8.393  16.564   2.242  0.00  0.00     0.042 C 
BRANCH   5   6
ATOM      6  C   UNL d   1       8.783  16.367   3.701  0.00  0.00     0.116 C 
ATOM      7 CL   UNL d   1       8.523  14.693   4.241  0.00  0.00    -0.130 Cl
ENDBRANCH   5   6
ENDBRANCH   4   5
ENDBRANCH   3   4
ENDBRANCH   1   3
BRANCH   1   8
ATOM      8  O   UNL d   1       9.190  12.918   1.002  0.00  0.00    -0.292 OA
BRANCH   8   9
ATOM      9  C   UNL d   1       7.863  13.229   0.616  0.00  0.00     0.181 C 
BRANCH   9  10
ATOM     10  C   UNL d   1       7.559  12.526  -0.701  0.00  0.00     0.042 C 
BRANCH  10  11
ATOM     11  C   UNL d   1       6.285  11.692  -0.668  0.00  0.00     0.116 C 
ATOM     12 CL   UNL d   1       6.456  10.178  -1.586  0.00  0.00    -0.130 Cl
ENDBRANCH  10  11
ENDBRANCH   9  10
ENDBRANCH   8   9
ENDBRANCH   1   8
BRANCH   1  13
ATOM     13  O   UNL d   1      11.095  13.650  -0.502  0.00  0.00    -0.292 OA
BRANCH  13  14
ATOM     14  C   UNL d   1      10.685  14.250  -1.719  0.00  0.00     0.181 C 
BRANCH  14  15
ATOM     15  C   UNL d   1      11.376  13.536  -2.874  0.00  0.00     0.042 C 
BRANCH  15  16
ATOM     16  C   UNL d   1      10.910  14.002  -4.247  0.00  0.00     0.116 C 
ATOM     17 CL   UNL d   1      10.743  12.648  -5.388  0.00  0.00    -0.130 Cl
ENDBRANCH  15  16
ENDBRANCH  14  15
ENDBRANCH  13  14
ENDBRANCH   1  13
TORSDOF 12
ENDMDL
MODEL 6
REMARK VINA RESULT:      -3.7      5.224      8.598
REMARK  12 active torsions:
REMARK  status: ('A' for Active; 'I' for Inactive)
REMARK    1  A    between atoms: P_4  and  O_5 
REMARK    2  A    between atoms: P_4  and  O_6 
REMARK    3  A    between atoms: P_4  and  O_7 
REMARK    4  A    between atoms: O_5  and  C_9 
REMARK    5  A    between atoms: O_6  and  C_10 
REMARK    6  A    between atoms: O_7  and  C_11 
REMARK    7  A    between atoms: C_9  and  C_12 
REMARK    8  A    between atoms: C_10  and  C_13 
REMARK    9  A    between atoms: C_11  and  C_14 
REMARK   10  A    between atoms: C_12  and  C_15 
REMARK   11  A    between atoms: C_13  and  C_16 
REMARK   12  A    between atoms: C_14  and  C_17 
ROOT
ATOM      1  P   UNL d   1       9.938  15.939   4.809  0.00  0.00     0.477 P 
ATOM      2  O   UNL d   1      10.639  16.225   6.107  0.00  0.00    -0.227 OA
ENDROOT
BRANCH   1   3
ATOM      3  O   UNL d   1       8.781  14.807   4.911  0.00  0.00    -0.292 OA
BRANCH   3   4
ATOM      4  C   UNL d   1       8.527  14.158   6.146  0.00  0.00     0.181 C 
BRANCH   4   5
ATOM      5  C   UNL d   1       7.270  14.760   6.763  0.00  0.00     0.042 C 
BRANCH   5   6
ATOM      6  C   UNL d   1       7.553  15.698   7.929  0.00  0.00     0.116 C 
ATOM      7 CL   UNL d   1       6.429  17.075   7.965  0.00  0.00    -0.130 Cl
ENDBRANCH   5   6
ENDBRANCH   4   5
ENDBRANCH   3   4
ENDBRANCH   1   3
BRANCH   1   8
ATOM      8  O   UNL d   1      10.907  15.421   3.618  0.00  0.00    -0.292 OA
BRANCH   8   9
ATOM      9  C   UNL d   1      10.382  15.352   2.304  0.00  0.00     0.181 C 
BRANCH   9  10
ATOM     10  C   UNL d   1      10.805  14.028   1.678  0.00  0.00     0.042 C 
BRANCH  10  11
ATOM     11  C   UNL d   1      10.412  13.892   0.213  0.00  0.00     0.116 C 
ATOM     12 CL   UNL d   1      10.120  15.473  -0.548  0.00  0.00    -0.130 Cl
ENDBRANCH  10  11
ENDBRANCH   9  10
ENDBRANCH   8   9
ENDBRANCH   1   8
BRANCH   1  13
ATOM     13  O   UNL d   1       9.197  17.217   4.145  0.00  0.00    -0.292 OA
BRANCH  13  14
ATOM     14  C   UNL d   1       7.790  17.325   4.278  0.00  0.00     0.181 C 
BRANCH  14  15
ATOM     15  C   UNL d   1       7.157  17.186   2.899  0.00  0.00     0.042 C 
BRANCH  15  16
ATOM     16  C   UNL d   1       6.382  15.889   2.711  0.00  0.00     0.116 C 
ATOM     17 CL   UNL d   1       6.907  15.003   1.262  0.00  0.00    -0.130 Cl
ENDBRANCH  15  16
ENDBRANCH  14  15
ENDBRANCH  13  14
ENDBRANCH   1  13
TORSDOF 12
ENDMDL
MODEL 7
REMARK VINA RESULT:      -3.6      2.372      3.777
REMARK  12 active torsions:
REMARK  status: ('A' for Active; 'I' for Inactive)
REMARK    1  A    between atoms: P_4  and  O_5 
REMARK    2  A    between atoms: P_4  and  O_6 
REMARK    3  A    between atoms: P_4  and  O_7 
REMARK    4  A    between atoms: O_5  and  C_9 
REMARK    5  A    between atoms: O_6  and  C_10 
REMARK    6  A    between atoms: O_7  and  C_11 
REMARK    7  A    between atoms: C_9  and  C_12 
REMARK    8  A    between atoms: C_10  and  C_13 
REMARK    9  A    between atoms: C_11  and  C_14 
REMARK   10  A    between atoms: C_12  and  C_15 
REMARK   11  A    between atoms: C_13  and  C_16 
REMARK   12  A    between atoms: C_14  and  C_17 
ROOT
ATOM      1  P   UNL d   1      10.228  14.288  -1.338  0.00  0.00     0.477 P 
ATOM      2  O   UNL d   1       9.031  13.462  -1.714  0.00  0.00    -0.227 OA
ENDROOT
BRANCH   1   3
ATOM      3  O   UNL d   1      11.569  13.943  -2.182  0.00  0.00    -0.292 OA
BRANCH   3   4
ATOM      4  C   UNL d   1      11.510  13.040  -3.273  0.00  0.00     0.181 C 
BRANCH   4   5
ATOM      5  C   UNL d   1      11.050  13.799  -4.511  0.00  0.00     0.042 C 
BRANCH   5   6
ATOM      6  C   UNL d   1      10.544  12.895  -5.627  0.00  0.00     0.116 C 
ATOM      7 CL   UNL d   1      11.141  11.229  -5.458  0.00  0.00    -0.130 Cl
ENDBRANCH   5   6
ENDBRANCH   4   5
ENDBRANCH   3   4
ENDBRANCH   1   3
BRANCH   1   8
ATOM      8  O   UNL d   1      10.680  14.157   0.212  0.00  0.00    -0.292 OA
BRANCH   8   9
ATOM      9  C   UNL d   1       9.906  13.341   1.074  0.00  0.00     0.181 C 
BRANCH   9  10
ATOM     10  C   UNL d   1       9.436  14.183   2.253  0.00  0.00     0.042 C 
BRANCH  10  11
ATOM     11  C   UNL d   1      10.491  15.152   2.771  0.00  0.00     0.116 C 
ATOM     12 CL   UNL d   1       9.971  15.968   4.263  0.00  0.00    -0.130 Cl
ENDBRANCH  10  11
ENDBRANCH   9  10
ENDBRANCH   8   9
ENDBRANCH   1   8
BRANCH   1  13
ATOM     13  O   UNL d   1      10.032  15.885  -1.525  0.00  0.00    -0.292 OA
BRANCH  13  14
ATOM     14  C   UNL d   1       9.201  16.575  -0.608  0.00  0.00     0.181 C 
BRANCH  14  15
ATOM     15  C   UNL d   1      10.014  17.682   0.052  0.00  0.00     0.042 C 
BRANCH  15  16
ATOM     16  C   UNL d   1       9.202  18.552   1.002  0.00  0.00     0.116 C 
ATOM     17 CL   UNL d   1       7.946  17.621   1.848  0.00  0.00    -0.130 Cl
ENDBRANCH  15  16
ENDBRANCH  14  15
ENDBRANCH  13  14
ENDBRANCH   1  13
TORSDOF 12
ENDMDL
MODEL 8
REMARK VINA RESULT:      -3.6      1.377      5.307
REMARK  12 active torsions:
REMARK  status: ('A' for Active; 'I' for Inactive)
REMARK    1  A    between atoms: P_4  and  O_5 
REMARK    2  A    between atoms: P_4  and  O_6 
REMARK    3  A    between atoms: P_4  and  O_7 
REMARK    4  A    between atoms: O_5  and  C_9 
REMARK    5  A    between atoms: O_6  and  C_10 
REMARK    6  A    between atoms: O_7  and  C_11 
REMARK    7  A    between atoms: C_9  and  C_12 
REMARK    8  A    between atoms: C_10  and  C_13 
REMARK    9  A    between atoms: C_11  and  C_14 
REMARK   10  A    between atoms: C_12  and  C_15 
REMARK   11  A    between atoms: C_13  and  C_16 
REMARK   12  A    between atoms: C_14  and  C_17 
ROOT
ATOM      1  P   UNL d   1      10.037  14.423  -1.114  0.00  0.00     0.477 P 
ATOM      2  O   UNL d   1      10.016  15.926  -1.106  0.00  0.00    -0.227 OA
ENDROOT
BRANCH   1   3
ATOM      3  O   UNL d   1       8.732  13.740  -1.790  0.00  0.00    -0.292 OA
BRANCH   3   4
ATOM      4  C   UNL d   1       7.785  13.061  -0.982  0.00  0.00     0.181 C 
BRANCH   4   5
ATOM      5  C   UNL d   1       6.871  12.242  -1.885  0.00  0.00     0.042 C 
BRANCH   5   6
ATOM      6  C   UNL d   1       6.466  10.902  -1.287  0.00  0.00     0.116 C 
ATOM      7 CL   UNL d   1       6.537   9.589  -2.484  0.00  0.00    -0.130 Cl
ENDBRANCH   5   6
ENDBRANCH   4   5
ENDBRANCH   3   4
ENDBRANCH   1   3
BRANCH   1   8
ATOM      8  O   UNL d   1      10.137  13.742   0.352  0.00  0.00    -0.292 OA
BRANCH   8   9
ATOM      9  C   UNL d   1      10.564  14.542   1.441  0.00  0.00     0.181 C 
BRANCH   9  10
ATOM     10  C   UNL d   1       9.505  14.484   2.535  0.00  0.00     0.042 C 
BRANCH  10  11
ATOM     11  C   UNL d   1       8.130  14.954   2.079  0.00  0.00     0.116 C 
ATOM     12 CL   UNL d   1       7.548  16.336   3.035  0.00  0.00    -0.130 Cl
ENDBRANCH  10  11
ENDBRANCH   9  10
ENDBRANCH   8   9
ENDBRANCH   1   8
BRANCH   1  13
ATOM     13  O   UNL d   1      11.292  13.770  -1.904  0.00  0.00    -0.292 OA
BRANCH  13  14
ATOM     14  C   UNL d   1      11.319  13.860  -3.318  0.00  0.00     0.181 C 
BRANCH  14  15
ATOM     15  C   UNL d   1      11.738  12.509  -3.885  0.00  0.00     0.042 C 
BRANCH  15  16
ATOM     16  C   UNL d   1      10.715  11.904  -4.838  0.00  0.00     0.116 C 
ATOM     17 CL   UNL d   1      11.381  10.523  -5.740  0.00  0.00    -0.130 Cl
ENDBRANCH  15  16
ENDBRANCH  14  15
ENDBRANCH  13  14
ENDBRANCH   1  13
TORSDOF 12
ENDMDL
MODEL 9
REMARK VINA RESULT:      -3.6      2.335      5.039
REMARK  12 active torsions:
REMARK  status: ('A' for Active; 'I' for Inactive)
REMARK    1  A    between atoms: P_4  and  O_5 
REMARK    2  A    between atoms: P_4  and  O_6 
REMARK    3  A    between atoms: P_4  and  O_7 
REMARK    4  A    between atoms: O_5  and  C_9 
REMARK    5  A    between atoms: O_6  and  C_10 
REMARK    6  A    between atoms: O_7  and  C_11 
REMARK    7  A    between atoms: C_9  and  C_12 
REMARK    8  A    between atoms: C_10  and  C_13 
REMARK    9  A    between atoms: C_11  and  C_14 
REMARK   10  A    between atoms: C_12  and  C_15 
REMARK   11  A    between atoms: C_13  and  C_16 
REMARK   12  A    between atoms: C_14  and  C_17 
ROOT
ATOM      1  P   UNL d   1       9.695  13.959   0.874  0.00  0.00     0.477 P 
ATOM      2  O   UNL d   1      11.022  13.608   1.486  0.00  0.00    -0.227 OA
ENDROOT
BRANCH   1   3
ATOM      3  O   UNL d   1       9.782  14.472  -0.662  0.00  0.00    -0.292 OA
BRANCH   3   4
ATOM      4  C   UNL d   1      10.830  14.020  -1.504  0.00  0.00     0.181 C 
BRANCH   4   5
ATOM      5  C   UNL d   1      10.330  14.014  -2.944  0.00  0.00     0.042 C 
BRANCH   5   6
ATOM      6  C   UNL d   1      11.382  13.573  -3.952  0.00  0.00     0.116 C 
ATOM      7 CL   UNL d   1      11.316  11.823  -4.263  0.00  0.00    -0.130 Cl
ENDBRANCH   5   6
ENDBRANCH   4   5
ENDBRANCH   3   4
ENDBRANCH   1   3
BRANCH   1   8
ATOM      8  O   UNL d   1       8.884  15.130   1.646  0.00  0.00    -0.292 OA
BRANCH   8   9
ATOM      9  C   UNL d   1       9.270  15.459   2.969  0.00  0.00     0.181 C 
BRANCH   9  10
ATOM     10  C   UNL d   1       8.102  15.172   3.905  0.00  0.00     0.042 C 
BRANCH  10  11
ATOM     11  C   UNL d   1       8.528  14.672   5.279  0.00  0.00     0.116 C 
ATOM     12 CL   UNL d   1       9.653  15.795   6.077  0.00  0.00    -0.130 Cl
ENDBRANCH  10  11
ENDBRANCH   9  10
ENDBRANCH   8   9
ENDBRANCH   1   8
BRANCH   1  13
ATOM     13  O   UNL d   1       8.626  12.743   0.835  0.00  0.00    -0.292 OA
BRANCH  13  14
ATOM     14  C   UNL d   1       7.342  12.989   0.288  0.00  0.00     0.181 C 
BRANCH  14  15
ATOM     15  C   UNL d   1       7.224  12.246  -1.037  0.00  0.00     0.042 C 
BRANCH  15  16
ATOM     16  C   UNL d   1       6.258  11.070  -0.992  0.00  0.00     0.116 C 
ATOM     17 CL   UNL d   1       6.585   9.891  -2.283  0.00  0.00    -0.130 Cl
ENDBRANCH  15  16
ENDBRANCH  14  15
ENDBRANCH  13  14
ENDBRANCH   1  13
TORSDOF 12
ENDMDL
