MODEL 1
REMARK VINA RESULT:      -4.8      0.000      0.000
REMARK  2 active torsions:
REMARK  status: ('A' for Active; 'I' for Inactive)
REMARK    1  A    between atoms: O_11  and  C_12 
REMARK    2  A    between atoms: O_11  and  C_13 
ROOT
ATOM      1  O   UNL d   1      10.004  14.066  -1.438  0.00  0.00    -0.305 OA
ENDROOT
BRANCH   1   2
ATOM      2  C   UNL d   1       9.730  15.108  -0.572  0.00  0.00     0.113 A 
ATOM      3  C   UNL d   1       9.123  16.257  -1.057  0.00  0.00     0.065 A 
ATOM      4 BR   UNL d   1       8.698  16.330  -2.924  0.00  0.00    -0.046 Br
ATOM      5  C   UNL d   1       8.848  17.309  -0.184  0.00  0.00     0.050 A 
ATOM      6 BR   UNL d   1       8.010  18.902  -0.861  0.00  0.00    -0.048 Br
ATOM      7  C   UNL d   1       9.183  17.201   1.166  0.00  0.00     0.048 A 
ATOM      8 BR   UNL d   1       8.806  18.654   2.371  0.00  0.00    -0.048 Br
ATOM      9  C   UNL d   1       9.792  16.041   1.641  0.00  0.00     0.050 A 
ATOM     10 BR   UNL d   1      10.262  15.870   3.499  0.00  0.00    -0.048 Br
ATOM     11  C   UNL d   1      10.068  14.988   0.768  0.00  0.00     0.065 A 
ATOM     12 BR   UNL d   1      10.901  13.364   1.344  0.00  0.00    -0.046 Br
ENDBRANCH   1   2
BRANCH   1  13
ATOM     13  C   UNL d   1       8.990  13.633  -2.244  0.00  0.00     0.113 A 
ATOM     14  C   UNL d   1       7.769  13.251  -1.688  0.00  0.00     0.065 A 
ATOM     15 BR   UNL d   1       7.594  13.364   0.216  0.00  0.00    -0.046 Br
ATOM     16  C   UNL d   1       6.736  12.806  -2.512  0.00  0.00     0.050 A 
ATOM     17 BR   UNL d   1       5.062  12.282  -1.723  0.00  0.00    -0.048 Br
ATOM     18  C   UNL d   1       6.922  12.743  -3.892  0.00  0.00     0.048 A 
ATOM     19 BR   UNL d   1       5.496  12.126  -5.029  0.00  0.00    -0.048 Br
ATOM     20  C   UNL d   1       8.142  13.124  -4.449  0.00  0.00     0.050 A 
ATOM     21 BR   UNL d   1       8.420  13.044  -6.350  0.00  0.00    -0.048 Br
ATOM     22  C   UNL d   1       9.177  13.568  -3.626  0.00  0.00     0.065 A 
ATOM     23 BR   UNL d   1      10.880  14.110  -4.314  0.00  0.00    -0.046 Br
ENDBRANCH   1  13
TORSDOF 2
ENDMDL
MODEL 2
REMARK VINA RESULT:      -4.8      0.031      2.584
REMARK  2 active torsions:
REMARK  status: ('A' for Active; 'I' for Inactive)
REMARK    1  A    between atoms: O_11  and  C_12 
REMARK    2  A    between atoms: O_11  and  C_13 
ROOT
ATOM      1  O   UNL d   1      10.029  14.061  -1.419  0.00  0.00    -0.305 OA
ENDROOT
BRANCH   1   2
ATOM      2  C   UNL d   1       9.748  15.102  -0.554  0.00  0.00     0.113 A 
ATOM      3  C   UNL d   1       9.143  16.250  -1.043  0.00  0.00     0.065 A 
ATOM      4 BR   UNL d   1       8.732  16.325  -2.912  0.00  0.00    -0.046 Br
ATOM      5  C   UNL d   1       8.861  17.302  -0.170  0.00  0.00     0.050 A 
ATOM      6 BR   UNL d   1       8.027  18.894  -0.852  0.00  0.00    -0.048 Br
ATOM      7  C   UNL d   1       9.187  17.192   1.182  0.00  0.00     0.048 A 
ATOM      8 BR   UNL d   1       8.800  18.645   2.385  0.00  0.00    -0.048 Br
ATOM      9  C   UNL d   1       9.794  16.032   1.661  0.00  0.00     0.050 A 
ATOM     10 BR   UNL d   1      10.250  15.861   3.521  0.00  0.00    -0.048 Br
ATOM     11  C   UNL d   1      10.077  14.981   0.789  0.00  0.00     0.065 A 
ATOM     12 BR   UNL d   1      10.907  13.357   1.369  0.00  0.00    -0.046 Br
ENDBRANCH   1   2
BRANCH   1  13
ATOM     13  C   UNL d   1       9.020  13.623  -2.229  0.00  0.00     0.113 A 
ATOM     14  C   UNL d   1       9.211  13.558  -3.609  0.00  0.00     0.065 A 
ATOM     15 BR   UNL d   1      10.918  14.098  -4.290  0.00  0.00    -0.046 Br
ATOM     16  C   UNL d   1       8.180  13.114  -4.436  0.00  0.00     0.050 A 
ATOM     17 BR   UNL d   1       8.464  13.033  -6.336  0.00  0.00    -0.048 Br
ATOM     18  C   UNL d   1       6.956  12.736  -3.883  0.00  0.00     0.048 A 
ATOM     19 BR   UNL d   1       5.532  12.126  -5.025  0.00  0.00    -0.048 Br
ATOM     20  C   UNL d   1       6.765  12.802  -2.504  0.00  0.00     0.050 A 
ATOM     21 BR   UNL d   1       5.086  12.285  -1.721  0.00  0.00    -0.048 Br
ATOM     22  C   UNL d   1       7.796  13.246  -1.676  0.00  0.00     0.065 A 
ATOM     23 BR   UNL d   1       7.611  13.364   0.226  0.00  0.00    -0.046 Br
ENDBRANCH   1  13
TORSDOF 2
ENDMDL
MODEL 3
REMARK VINA RESULT:      -4.8      0.027      6.531
REMARK  2 active torsions:
REMARK  status: ('A' for Active; 'I' for Inactive)
REMARK    1  A    between atoms: O_11  and  C_12 
REMARK    2  A    between atoms: O_11  and  C_13 
ROOT
ATOM      1  O   UNL d   1      10.025  14.073  -1.423  0.00  0.00    -0.305 OA
ENDROOT
BRANCH   1   2
ATOM      2  C   UNL d   1       9.001  13.633  -2.241  0.00  0.00     0.113 A 
ATOM      3  C   UNL d   1       7.791  13.257  -1.677  0.00  0.00     0.065 A 
ATOM      4 BR   UNL d   1       7.612  13.370   0.226  0.00  0.00    -0.046 Br
ATOM      5  C   UNL d   1       6.759  12.810  -2.503  0.00  0.00     0.050 A 
ATOM      6 BR   UNL d   1       5.084  12.286  -1.717  0.00  0.00    -0.048 Br
ATOM      7  C   UNL d   1       6.948  12.746  -3.883  0.00  0.00     0.048 A 
ATOM      8 BR   UNL d   1       5.524  12.128  -5.021  0.00  0.00    -0.048 Br
ATOM      9  C   UNL d   1       8.169  13.127  -4.438  0.00  0.00     0.050 A 
ATOM     10 BR   UNL d   1       8.450  13.046  -6.338  0.00  0.00    -0.048 Br
ATOM     11  C   UNL d   1       9.202  13.573  -3.613  0.00  0.00     0.065 A 
ATOM     12 BR   UNL d   1      10.906  14.114  -4.298  0.00  0.00    -0.046 Br
ENDBRANCH   1   2
BRANCH   1  13
ATOM     13  C   UNL d   1       9.751  15.101  -0.567  0.00  0.00     0.113 A 
ATOM     14  C   UNL d   1       9.148  16.265  -1.044  0.00  0.00     0.065 A 
ATOM     15 BR   UNL d   1       8.738  16.344  -2.913  0.00  0.00    -0.046 Br
ATOM     16  C   UNL d   1       8.871  17.316  -0.169  0.00  0.00     0.050 A 
ATOM     17 BR   UNL d   1       8.043  18.913  -0.849  0.00  0.00    -0.048 Br
ATOM     18  C   UNL d   1       9.196  17.202   1.182  0.00  0.00     0.048 A 
ATOM     19 BR   UNL d   1       8.815  18.654   2.388  0.00  0.00    -0.048 Br
ATOM     20  C   UNL d   1       9.798  16.039   1.659  0.00  0.00     0.050 A 
ATOM     21 BR   UNL d   1      10.253  15.862   3.519  0.00  0.00    -0.048 Br
ATOM     22  C   UNL d   1      10.076  14.988   0.785  0.00  0.00     0.065 A 
ATOM     23 BR   UNL d   1      10.900  13.359   1.363  0.00  0.00    -0.046 Br
ENDBRANCH   1  13
TORSDOF 2
ENDMDL
MODEL 4
REMARK VINA RESULT:      -4.8      0.025      2.584
REMARK  2 active torsions:
REMARK  status: ('A' for Active; 'I' for Inactive)
REMARK    1  A    between atoms: O_11  and  C_12 
REMARK    2  A    between atoms: O_11  and  C_13 
ROOT
ATOM      1  O   UNL d   1      10.003  14.058  -1.433  0.00  0.00    -0.305 OA
ENDROOT
BRANCH   1   2
ATOM      2  C   UNL d   1       9.732  15.098  -0.564  0.00  0.00     0.113 A 
ATOM      3  C   UNL d   1      10.077  14.977   0.774  0.00  0.00     0.065 A 
ATOM      4 BR   UNL d   1      10.918  13.352   1.342  0.00  0.00    -0.046 Br
ATOM      5  C   UNL d   1       9.801  16.026   1.652  0.00  0.00     0.050 A 
ATOM      6 BR   UNL d   1      10.278  15.852   3.506  0.00  0.00    -0.048 Br
ATOM      7  C   UNL d   1       9.184  17.184   1.181  0.00  0.00     0.048 A 
ATOM      8 BR   UNL d   1       8.801  18.630   2.393  0.00  0.00    -0.048 Br
ATOM      9  C   UNL d   1       8.842  17.294  -0.166  0.00  0.00     0.050 A 
ATOM     10 BR   UNL d   1       7.991  18.883  -0.835  0.00  0.00    -0.048 Br
ATOM     11  C   UNL d   1       9.117  16.245  -1.044  0.00  0.00     0.065 A 
ATOM     12 BR   UNL d   1       8.680  16.321  -2.906  0.00  0.00    -0.046 Br
ENDBRANCH   1   2
BRANCH   1  13
ATOM     13  C   UNL d   1       8.985  13.626  -2.236  0.00  0.00     0.113 A 
ATOM     14  C   UNL d   1       7.769  13.237  -1.674  0.00  0.00     0.065 A 
ATOM     15 BR   UNL d   1       7.606  13.337   0.232  0.00  0.00    -0.046 Br
ATOM     16  C   UNL d   1       6.732  12.793  -2.494  0.00  0.00     0.050 A 
ATOM     17 BR   UNL d   1       5.066  12.258  -1.697  0.00  0.00    -0.048 Br
ATOM     18  C   UNL d   1       6.910  12.738  -3.876  0.00  0.00     0.048 A 
ATOM     19 BR   UNL d   1       5.478  12.123  -5.006  0.00  0.00    -0.048 Br
ATOM     20  C   UNL d   1       8.125  13.127  -4.438  0.00  0.00     0.050 A 
ATOM     21 BR   UNL d   1       8.390  13.060  -6.341  0.00  0.00    -0.048 Br
ATOM     22  C   UNL d   1       9.163  13.570  -3.619  0.00  0.00     0.065 A 
ATOM     23 BR   UNL d   1      10.859  14.122  -4.314  0.00  0.00    -0.046 Br
ENDBRANCH   1  13
TORSDOF 2
ENDMDL
MODEL 5
REMARK VINA RESULT:      -4.8      0.051      6.047
REMARK  2 active torsions:
REMARK  status: ('A' for Active; 'I' for Inactive)
REMARK    1  A    between atoms: O_11  and  C_12 
REMARK    2  A    between atoms: O_11  and  C_13 
ROOT
ATOM      1  O   UNL d   1       9.992  14.073  -1.446  0.00  0.00    -0.305 OA
ENDROOT
BRANCH   1   2
ATOM      2  C   UNL d   1       8.962  13.620  -2.249  0.00  0.00     0.113 A 
ATOM      3  C   UNL d   1       9.138  13.573  -3.623  0.00  0.00     0.065 A 
ATOM      4 BR   UNL d   1      10.821  14.148  -4.335  0.00  0.00    -0.046 Br
ATOM      5  C   UNL d   1       8.098  13.118  -4.434  0.00  0.00     0.050 A 
ATOM      6 BR   UNL d   1       8.345  13.057  -6.340  0.00  0.00    -0.048 Br
ATOM      7  C   UNL d   1       6.892  12.714  -3.860  0.00  0.00     0.048 A 
ATOM      8 BR   UNL d   1       5.456  12.089  -4.978  0.00  0.00    -0.048 Br
ATOM      9  C   UNL d   1       6.727  12.767  -2.476  0.00  0.00     0.050 A 
ATOM     10 BR   UNL d   1       5.073  12.215  -1.665  0.00  0.00    -0.048 Br
ATOM     11  C   UNL d   1       7.767  13.222  -1.665  0.00  0.00     0.065 A 
ATOM     12 BR   UNL d   1       7.619  13.323   0.240  0.00  0.00    -0.046 Br
ENDBRANCH   1   2
BRANCH   1  13
ATOM     13  C   UNL d   1       9.716  15.096  -0.584  0.00  0.00     0.113 A 
ATOM     14  C   UNL d   1      10.056  14.985   0.764  0.00  0.00     0.065 A 
ATOM     15 BR   UNL d   1      10.909  13.365   1.327  0.00  0.00    -0.046 Br
ATOM     16  C   UNL d   1       9.772  16.028   1.645  0.00  0.00     0.050 A 
ATOM     17 BR   UNL d   1      10.248  15.852   3.499  0.00  0.00    -0.048 Br
ATOM     18  C   UNL d   1       9.146  17.184   1.178  0.00  0.00     0.048 A 
ATOM     19 BR   UNL d   1       8.751  18.623   2.394  0.00  0.00    -0.048 Br
ATOM     20  C   UNL d   1       8.805  17.296  -0.170  0.00  0.00     0.050 A 
ATOM     21 BR   UNL d   1       7.942  18.881  -0.834  0.00  0.00    -0.048 Br
ATOM     22  C   UNL d   1       9.089  16.253  -1.050  0.00  0.00     0.065 A 
ATOM     23 BR   UNL d   1       8.653  16.331  -2.913  0.00  0.00    -0.046 Br
ENDBRANCH   1  13
TORSDOF 2
ENDMDL
MODEL 6
REMARK VINA RESULT:      -4.8      0.016      6.296
REMARK  2 active torsions:
REMARK  status: ('A' for Active; 'I' for Inactive)
REMARK    1  A    between atoms: O_11  and  C_12 
REMARK    2  A    between atoms: O_11  and  C_13 
ROOT
ATOM      1  O   UNL d   1      10.003  14.069  -1.442  0.00  0.00    -0.305 OA
ENDROOT
BRANCH   1   2
ATOM      2  C   UNL d   1       8.975  13.631  -2.255  0.00  0.00     0.113 A 
ATOM      3  C   UNL d   1       7.769  13.252  -1.685  0.00  0.00     0.065 A 
ATOM      4 BR   UNL d   1       7.601  13.360   0.220  0.00  0.00    -0.046 Br
ATOM      5  C   UNL d   1       6.732  12.807  -2.506  0.00  0.00     0.050 A 
ATOM      6 BR   UNL d   1       5.062  12.280  -1.712  0.00  0.00    -0.048 Br
ATOM      7  C   UNL d   1       6.913  12.747  -3.887  0.00  0.00     0.048 A 
ATOM      8 BR   UNL d   1       5.483  12.131  -5.019  0.00  0.00    -0.048 Br
ATOM      9  C   UNL d   1       8.130  13.131  -4.448  0.00  0.00     0.050 A 
ATOM     10 BR   UNL d   1       8.401  13.056  -6.350  0.00  0.00    -0.048 Br
ATOM     11  C   UNL d   1       9.168  13.575  -3.628  0.00  0.00     0.065 A 
ATOM     12 BR   UNL d   1      10.867  14.120  -4.321  0.00  0.00    -0.046 Br
ENDBRANCH   1   2
BRANCH   1  13
ATOM     13  C   UNL d   1       9.734  15.095  -0.582  0.00  0.00     0.113 A 
ATOM     14  C   UNL d   1      10.067  14.981   0.768  0.00  0.00     0.065 A 
ATOM     15 BR   UNL d   1      10.901  13.354   1.336  0.00  0.00    -0.046 Br
ATOM     16  C   UNL d   1       9.789  16.028   1.646  0.00  0.00     0.050 A 
ATOM     17 BR   UNL d   1      10.254  15.849   3.503  0.00  0.00    -0.048 Br
ATOM     18  C   UNL d   1       9.176  17.190   1.176  0.00  0.00     0.048 A 
ATOM     19 BR   UNL d   1       8.790  18.633   2.389  0.00  0.00    -0.048 Br
ATOM     20  C   UNL d   1       8.843  17.304  -0.173  0.00  0.00     0.050 A 
ATOM     21 BR   UNL d   1       7.998  18.897  -0.843  0.00  0.00    -0.048 Br
ATOM     22  C   UNL d   1       9.120  16.257  -1.052  0.00  0.00     0.065 A 
ATOM     23 BR   UNL d   1       8.694  16.338  -2.917  0.00  0.00    -0.046 Br
ENDBRANCH   1  13
TORSDOF 2
ENDMDL
MODEL 7
REMARK VINA RESULT:      -4.8      0.019      3.655
REMARK  2 active torsions:
REMARK  status: ('A' for Active; 'I' for Inactive)
REMARK    1  A    between atoms: O_11  and  C_12 
REMARK    2  A    between atoms: O_11  and  C_13 
ROOT
ATOM      1  O   UNL d   1      10.018  14.065  -1.436  0.00  0.00    -0.305 OA
ENDROOT
BRANCH   1   2
ATOM      2  C   UNL d   1       9.739  15.104  -0.567  0.00  0.00     0.113 A 
ATOM      3  C   UNL d   1      10.070  14.979   0.774  0.00  0.00     0.065 A 
ATOM      4 BR   UNL d   1      10.905  13.353   1.347  0.00  0.00    -0.046 Br
ATOM      5  C   UNL d   1       9.786  16.026   1.651  0.00  0.00     0.050 A 
ATOM      6 BR   UNL d   1      10.244  15.848   3.510  0.00  0.00    -0.048 Br
ATOM      7  C   UNL d   1       9.174  17.186   1.178  0.00  0.00     0.048 A 
ATOM      8 BR   UNL d   1       8.780  18.630   2.389  0.00  0.00    -0.048 Br
ATOM      9  C   UNL d   1       8.846  17.299  -0.173  0.00  0.00     0.050 A 
ATOM     10 BR   UNL d   1       8.002  18.890  -0.847  0.00  0.00    -0.048 Br
ATOM     11  C   UNL d   1       9.129  16.252  -1.051  0.00  0.00     0.065 A 
ATOM     12 BR   UNL d   1       8.711  16.332  -2.917  0.00  0.00    -0.046 Br
ENDBRANCH   1   2
BRANCH   1  13
ATOM     13  C   UNL d   1       9.006  13.630  -2.244  0.00  0.00     0.113 A 
ATOM     14  C   UNL d   1       9.191  13.573  -3.625  0.00  0.00     0.065 A 
ATOM     15 BR   UNL d   1      10.893  14.122  -4.311  0.00  0.00    -0.046 Br
ATOM     16  C   UNL d   1       8.157  13.132  -4.450  0.00  0.00     0.050 A 
ATOM     17 BR   UNL d   1       8.433  13.064  -6.352  0.00  0.00    -0.048 Br
ATOM     18  C   UNL d   1       6.937  12.747  -3.894  0.00  0.00     0.048 A 
ATOM     19 BR   UNL d   1       5.509  12.141  -5.034  0.00  0.00    -0.048 Br
ATOM     20  C   UNL d   1       6.752  12.804  -2.514  0.00  0.00     0.050 A 
ATOM     21 BR   UNL d   1       5.077  12.278  -1.727  0.00  0.00    -0.048 Br
ATOM     22  C   UNL d   1       7.785  13.246  -1.688  0.00  0.00     0.065 A 
ATOM     23 BR   UNL d   1       7.609  13.352   0.215  0.00  0.00    -0.046 Br
ENDBRANCH   1  13
TORSDOF 2
ENDMDL
MODEL 8
REMARK VINA RESULT:      -4.8      0.115      6.301
REMARK  2 active torsions:
REMARK  status: ('A' for Active; 'I' for Inactive)
REMARK    1  A    between atoms: O_11  and  C_12 
REMARK    2  A    between atoms: O_11  and  C_13 
ROOT
ATOM      1  O   UNL d   1      10.084  14.063  -1.378  0.00  0.00    -0.305 OA
ENDROOT
BRANCH   1   2
ATOM      2  C   UNL d   1       9.057  13.634  -2.198  0.00  0.00     0.113 A 
ATOM      3  C   UNL d   1       9.264  13.559  -3.568  0.00  0.00     0.065 A 
ATOM      4 BR   UNL d   1      10.983  14.062  -4.246  0.00  0.00    -0.046 Br
ATOM      5  C   UNL d   1       8.227  13.129  -4.396  0.00  0.00     0.050 A 
ATOM      6 BR   UNL d   1       8.517  13.030  -6.294  0.00  0.00    -0.048 Br
ATOM      7  C   UNL d   1       6.995  12.778  -3.845  0.00  0.00     0.048 A 
ATOM      8 BR   UNL d   1       5.563  12.187  -4.989  0.00  0.00    -0.048 Br
ATOM      9  C   UNL d   1       6.799  12.858  -2.467  0.00  0.00     0.050 A 
ATOM     10 BR   UNL d   1       5.108  12.379  -1.688  0.00  0.00    -0.048 Br
ATOM     11  C   UNL d   1       7.836  13.289  -1.638  0.00  0.00     0.065 A 
ATOM     12 BR   UNL d   1       7.646  13.424   0.262  0.00  0.00    -0.046 Br
ENDBRANCH   1   2
BRANCH   1  13
ATOM     13  C   UNL d   1       9.813  15.083  -0.510  0.00  0.00     0.113 A 
ATOM     14  C   UNL d   1       9.219  16.256  -0.975  0.00  0.00     0.065 A 
ATOM     15 BR   UNL d   1       8.812  16.358  -2.844  0.00  0.00    -0.046 Br
ATOM     16  C   UNL d   1       8.946  17.298  -0.089  0.00  0.00     0.050 A 
ATOM     17 BR   UNL d   1       8.129  18.907  -0.752  0.00  0.00    -0.048 Br
ATOM     18  C   UNL d   1       9.267  17.168   1.261  0.00  0.00     0.048 A 
ATOM     19 BR   UNL d   1       8.892  18.608   2.483  0.00  0.00    -0.048 Br
ATOM     20  C   UNL d   1       9.861  15.995   1.727  0.00  0.00     0.050 A 
ATOM     21 BR   UNL d   1      10.312  15.795   3.585  0.00  0.00    -0.048 Br
ATOM     22  C   UNL d   1      10.135  14.953   0.841  0.00  0.00     0.065 A 
ATOM     23 BR   UNL d   1      10.948  13.313   1.402  0.00  0.00    -0.046 Br
ENDBRANCH   1  13
TORSDOF 2
ENDMDL
MODEL 9
REMARK VINA RESULT:      -4.7      1.361      6.445
REMARK  2 active torsions:
REMARK  status: ('A' for Active; 'I' for Inactive)
REMARK    1  A    between atoms: O_11  and  C_12 
REMARK    2  A    between atoms: O_11  and  C_13 
ROOT
ATOM      1  O   UNL d   1       7.660  14.373  -0.904  0.00  0.00    -0.305 OA
ENDROOT
BRANCH   1   2
ATOM      2  C   UNL d   1       8.034  13.999  -2.181  0.00  0.00     0.113 A 
ATOM      3  C   UNL d   1       7.068  13.887  -3.170  0.00  0.00     0.065 A 
ATOM      4 BR   UNL d   1       5.250  14.263  -2.698  0.00  0.00    -0.046 Br
ATOM      5  C   UNL d   1       7.445  13.507  -4.458  0.00  0.00     0.050 A 
ATOM      6 BR   UNL d   1       6.102  13.350  -5.825  0.00  0.00    -0.048 Br
ATOM      7  C   UNL d   1       8.784  13.242  -4.743  0.00  0.00     0.048 A 
ATOM      8 BR   UNL d   1       9.304  12.714  -6.519  0.00  0.00    -0.048 Br
ATOM      9  C   UNL d   1       9.746  13.358  -3.740  0.00  0.00     0.050 A 
ATOM     10 BR   UNL d   1      11.598  12.998  -4.111  0.00  0.00    -0.048 Br
ATOM     11  C   UNL d   1       9.369  13.738  -2.451  0.00  0.00     0.065 A 
ATOM     12 BR   UNL d   1      10.629  13.920  -1.022  0.00  0.00    -0.046 Br
ENDBRANCH   1   2
BRANCH   1  13
ATOM     13  C   UNL d   1       8.332  15.415  -0.330  0.00  0.00     0.113 A 
ATOM     14  C   UNL d   1       8.408  16.644  -0.987  0.00  0.00     0.065 A 
ATOM     15 BR   UNL d   1       7.543  16.788  -2.690  0.00  0.00    -0.046 Br
ATOM     16  C   UNL d   1       9.097  17.706  -0.402  0.00  0.00     0.050 A 
ATOM     17 BR   UNL d   1       9.191  19.389  -1.327  0.00  0.00    -0.048 Br
ATOM     18  C   UNL d   1       9.709  17.541   0.839  0.00  0.00     0.048 A 
ATOM     19 BR   UNL d   1      10.662  19.007   1.645  0.00  0.00    -0.048 Br
ATOM     20  C   UNL d   1       9.634  16.313   1.496  0.00  0.00     0.050 A 
ATOM     21 BR   UNL d   1      10.472  16.065   3.209  0.00  0.00    -0.048 Br
ATOM     22  C   UNL d   1       8.946  15.250   0.912  0.00  0.00     0.065 A 
ATOM     23 BR   UNL d   1       8.796  13.535   1.750  0.00  0.00    -0.046 Br
ENDBRANCH   1  13
TORSDOF 2
ENDMDL
