MODEL 1
REMARK VINA RESULT:      -4.8      0.000      0.000
REMARK  2 active torsions:
REMARK  status: ('A' for Active; 'I' for Inactive)
REMARK    1  A    between atoms: O_11  and  C_12 
REMARK    2  A    between atoms: O_11  and  C_13 
ROOT
ATOM      1  O   UNL d   1      10.015  14.068  -1.435  0.00  0.00    -0.305 OA
ENDROOT
BRANCH   1   2
ATOM      2  C   UNL d   1       9.739  15.107  -0.565  0.00  0.00     0.113 A 
ATOM      3  C   UNL d   1      10.072  14.982   0.775  0.00  0.00     0.065 A 
ATOM      4 BR   UNL d   1      10.905  13.355   1.347  0.00  0.00    -0.046 Br
ATOM      5  C   UNL d   1       9.790  16.029   1.653  0.00  0.00     0.050 A 
ATOM      6 BR   UNL d   1      10.251  15.851   3.511  0.00  0.00    -0.048 Br
ATOM      7  C   UNL d   1       9.179  17.190   1.180  0.00  0.00     0.048 A 
ATOM      8 BR   UNL d   1       8.789  18.634   2.391  0.00  0.00    -0.048 Br
ATOM      9  C   UNL d   1       8.850  17.303  -0.170  0.00  0.00     0.050 A 
ATOM     10 BR   UNL d   1       8.007  18.896  -0.843  0.00  0.00    -0.048 Br
ATOM     11  C   UNL d   1       9.130  16.256  -1.048  0.00  0.00     0.065 A 
ATOM     12 BR   UNL d   1       8.709  16.336  -2.914  0.00  0.00    -0.046 Br
ENDBRANCH   1   2
BRANCH   1  13
ATOM     13  C   UNL d   1       9.003  13.636  -2.243  0.00  0.00     0.113 A 
ATOM     14  C   UNL d   1       7.783  13.248  -1.688  0.00  0.00     0.065 A 
ATOM     15 BR   UNL d   1       7.608  13.352   0.217  0.00  0.00    -0.046 Br
ATOM     16  C   UNL d   1       6.750  12.804  -2.513  0.00  0.00     0.050 A 
ATOM     17 BR   UNL d   1       5.079  12.272  -1.726  0.00  0.00    -0.048 Br
ATOM     18  C   UNL d   1       6.937  12.747  -3.894  0.00  0.00     0.048 A 
ATOM     19 BR   UNL d   1       5.512  12.131  -5.032  0.00  0.00    -0.048 Br
ATOM     20  C   UNL d   1       8.156  13.134  -4.449  0.00  0.00     0.050 A 
ATOM     21 BR   UNL d   1       8.433  13.063  -6.351  0.00  0.00    -0.048 Br
ATOM     22  C   UNL d   1       9.189  13.577  -3.624  0.00  0.00     0.065 A 
ATOM     23 BR   UNL d   1      10.890  14.127  -4.310  0.00  0.00    -0.046 Br
ENDBRANCH   1  13
TORSDOF 2
ENDMDL
MODEL 2
REMARK VINA RESULT:      -4.8      0.098      2.586
REMARK  2 active torsions:
REMARK  status: ('A' for Active; 'I' for Inactive)
REMARK    1  A    between atoms: O_11  and  C_12 
REMARK    2  A    between atoms: O_11  and  C_13 
ROOT
ATOM      1  O   UNL d   1      10.064  14.057  -1.381  0.00  0.00    -0.305 OA
ENDROOT
BRANCH   1   2
ATOM      2  C   UNL d   1       9.801  15.095  -0.507  0.00  0.00     0.113 A 
ATOM      3  C   UNL d   1       9.219  16.259  -0.987  0.00  0.00     0.065 A 
ATOM      4 BR   UNL d   1       8.812  16.358  -2.856  0.00  0.00    -0.046 Br
ATOM      5  C   UNL d   1       8.956  17.309  -0.106  0.00  0.00     0.050 A 
ATOM      6 BR   UNL d   1       8.153  18.922  -0.776  0.00  0.00    -0.048 Br
ATOM      7  C   UNL d   1       9.277  17.182   1.245  0.00  0.00     0.048 A 
ATOM      8 BR   UNL d   1       8.917  18.631   2.460  0.00  0.00    -0.048 Br
ATOM      9  C   UNL d   1       9.862  16.007   1.715  0.00  0.00     0.050 A 
ATOM     10 BR   UNL d   1      10.312  15.811   3.574  0.00  0.00    -0.048 Br
ATOM     11  C   UNL d   1      10.125  14.957   0.834  0.00  0.00     0.065 A 
ATOM     12 BR   UNL d   1      10.924  13.313   1.402  0.00  0.00    -0.046 Br
ENDBRANCH   1   2
BRANCH   1  13
ATOM     13  C   UNL d   1       9.045  13.639  -2.189  0.00  0.00     0.113 A 
ATOM     14  C   UNL d   1       7.814  13.287  -1.636  0.00  0.00     0.065 A 
ATOM     15 BR   UNL d   1       7.632  13.417   0.266  0.00  0.00    -0.046 Br
ATOM     16  C   UNL d   1       6.775  12.859  -2.462  0.00  0.00     0.050 A 
ATOM     17 BR   UNL d   1       5.087  12.376  -1.677  0.00  0.00    -0.048 Br
ATOM     18  C   UNL d   1       6.966  12.782  -3.841  0.00  0.00     0.048 A 
ATOM     19 BR   UNL d   1       5.533  12.187  -4.980  0.00  0.00    -0.048 Br
ATOM     20  C   UNL d   1       8.197  13.133  -4.394  0.00  0.00     0.050 A 
ATOM     21 BR   UNL d   1       8.482  13.035  -6.293  0.00  0.00    -0.048 Br
ATOM     22  C   UNL d   1       9.236  13.561  -3.569  0.00  0.00     0.065 A 
ATOM     23 BR   UNL d   1      10.954  14.062  -4.252  0.00  0.00    -0.046 Br
ENDBRANCH   1  13
TORSDOF 2
ENDMDL
MODEL 3
REMARK VINA RESULT:      -4.8      0.019      6.294
REMARK  2 active torsions:
REMARK  status: ('A' for Active; 'I' for Inactive)
REMARK    1  A    between atoms: O_11  and  C_12 
REMARK    2  A    between atoms: O_11  and  C_13 
ROOT
ATOM      1  O   UNL d   1      10.001  14.066  -1.440  0.00  0.00    -0.305 OA
ENDROOT
BRANCH   1   2
ATOM      2  C   UNL d   1       8.974  13.628  -2.255  0.00  0.00     0.113 A 
ATOM      3  C   UNL d   1       7.766  13.253  -1.688  0.00  0.00     0.065 A 
ATOM      4 BR   UNL d   1       7.592  13.364   0.216  0.00  0.00    -0.046 Br
ATOM      5  C   UNL d   1       6.730  12.809  -2.511  0.00  0.00     0.050 A 
ATOM      6 BR   UNL d   1       5.057  12.286  -1.720  0.00  0.00    -0.048 Br
ATOM      7  C   UNL d   1       6.915  12.746  -3.892  0.00  0.00     0.048 A 
ATOM      8 BR   UNL d   1       5.487  12.131  -5.026  0.00  0.00    -0.048 Br
ATOM      9  C   UNL d   1       8.135  13.127  -4.450  0.00  0.00     0.050 A 
ATOM     10 BR   UNL d   1       8.410  13.048  -6.351  0.00  0.00    -0.048 Br
ATOM     11  C   UNL d   1       9.171  13.570  -3.627  0.00  0.00     0.065 A 
ATOM     12 BR   UNL d   1      10.873  14.110  -4.317  0.00  0.00    -0.046 Br
ENDBRANCH   1   2
BRANCH   1  13
ATOM     13  C   UNL d   1       9.730  15.092  -0.579  0.00  0.00     0.113 A 
ATOM     14  C   UNL d   1       9.120  16.255  -1.049  0.00  0.00     0.065 A 
ATOM     15 BR   UNL d   1       8.694  16.335  -2.915  0.00  0.00    -0.046 Br
ATOM     16  C   UNL d   1       8.846  17.303  -0.171  0.00  0.00     0.050 A 
ATOM     17 BR   UNL d   1       8.007  18.898  -0.841  0.00  0.00    -0.048 Br
ATOM     18  C   UNL d   1       9.182  17.188   1.178  0.00  0.00     0.048 A 
ATOM     19 BR   UNL d   1       8.806  18.636   2.389  0.00  0.00    -0.048 Br
ATOM     20  C   UNL d   1       9.792  16.026   1.648  0.00  0.00     0.050 A 
ATOM     21 BR   UNL d   1      10.263  15.848   3.504  0.00  0.00    -0.048 Br
ATOM     22  C   UNL d   1      10.067  14.978   0.770  0.00  0.00     0.065 A 
ATOM     23 BR   UNL d   1      10.901  13.351   1.338  0.00  0.00    -0.046 Br
ENDBRANCH   1  13
TORSDOF 2
ENDMDL
MODEL 4
REMARK VINA RESULT:      -4.8      0.094      6.527
REMARK  2 active torsions:
REMARK  status: ('A' for Active; 'I' for Inactive)
REMARK    1  A    between atoms: O_11  and  C_12 
REMARK    2  A    between atoms: O_11  and  C_13 
ROOT
ATOM      1  O   UNL d   1      10.067  14.050  -1.382  0.00  0.00    -0.305 OA
ENDROOT
BRANCH   1   2
ATOM      2  C   UNL d   1       9.037  13.624  -2.200  0.00  0.00     0.113 A 
ATOM      3  C   UNL d   1       9.237  13.555  -3.571  0.00  0.00     0.065 A 
ATOM      4 BR   UNL d   1      10.953  14.062  -4.255  0.00  0.00    -0.046 Br
ATOM      5  C   UNL d   1       8.197  13.128  -4.396  0.00  0.00     0.050 A 
ATOM      6 BR   UNL d   1       8.478  13.037  -6.296  0.00  0.00    -0.048 Br
ATOM      7  C   UNL d   1       6.967  12.774  -3.841  0.00  0.00     0.048 A 
ATOM      8 BR   UNL d   1       5.531  12.187  -4.981  0.00  0.00    -0.048 Br
ATOM      9  C   UNL d   1       6.778  12.847  -2.462  0.00  0.00     0.050 A 
ATOM     10 BR   UNL d   1       5.091  12.364  -1.677  0.00  0.00    -0.048 Br
ATOM     11  C   UNL d   1       7.818  13.275  -1.636  0.00  0.00     0.065 A 
ATOM     12 BR   UNL d   1       7.637  13.402   0.265  0.00  0.00    -0.046 Br
ENDBRANCH   1   2
BRANCH   1  13
ATOM     13  C   UNL d   1       9.805  15.078  -0.522  0.00  0.00     0.113 A 
ATOM     14  C   UNL d   1       9.219  16.252  -0.995  0.00  0.00     0.065 A 
ATOM     15 BR   UNL d   1       8.813  16.345  -2.864  0.00  0.00    -0.046 Br
ATOM     16  C   UNL d   1       8.955  17.303  -0.116  0.00  0.00     0.050 A 
ATOM     17 BR   UNL d   1       8.150  18.914  -0.790  0.00  0.00    -0.048 Br
ATOM     18  C   UNL d   1       9.276  17.179   1.235  0.00  0.00     0.048 A 
ATOM     19 BR   UNL d   1       8.914  18.631   2.447  0.00  0.00    -0.048 Br
ATOM     20  C   UNL d   1       9.861  16.006   1.708  0.00  0.00     0.050 A 
ATOM     21 BR   UNL d   1      10.312  15.815   3.568  0.00  0.00    -0.048 Br
ATOM     22  C   UNL d   1      10.127  14.955   0.830  0.00  0.00     0.065 A 
ATOM     23 BR   UNL d   1      10.927  13.312   1.403  0.00  0.00    -0.046 Br
ENDBRANCH   1  13
TORSDOF 2
ENDMDL
MODEL 5
REMARK VINA RESULT:      -4.8      0.012      6.291
REMARK  2 active torsions:
REMARK  status: ('A' for Active; 'I' for Inactive)
REMARK    1  A    between atoms: O_11  and  C_12 
REMARK    2  A    between atoms: O_11  and  C_13 
ROOT
ATOM      1  O   UNL d   1      10.013  14.067  -1.439  0.00  0.00    -0.305 OA
ENDROOT
BRANCH   1   2
ATOM      2  C   UNL d   1       8.988  13.625  -2.253  0.00  0.00     0.113 A 
ATOM      3  C   UNL d   1       9.182  13.570  -3.626  0.00  0.00     0.065 A 
ATOM      4 BR   UNL d   1      10.882  14.119  -4.316  0.00  0.00    -0.046 Br
ATOM      5  C   UNL d   1       8.146  13.126  -4.448  0.00  0.00     0.050 A 
ATOM      6 BR   UNL d   1       8.419  13.054  -6.350  0.00  0.00    -0.048 Br
ATOM      7  C   UNL d   1       6.928  12.742  -3.889  0.00  0.00     0.048 A 
ATOM      8 BR   UNL d   1       5.498  12.132  -5.024  0.00  0.00    -0.048 Br
ATOM      9  C   UNL d   1       6.745  12.801  -2.508  0.00  0.00     0.050 A 
ATOM     10 BR   UNL d   1       5.073  12.276  -1.717  0.00  0.00    -0.048 Br
ATOM     11  C   UNL d   1       7.780  13.246  -1.685  0.00  0.00     0.065 A 
ATOM     12 BR   UNL d   1       7.607  13.355   0.218  0.00  0.00    -0.046 Br
ENDBRANCH   1   2
BRANCH   1  13
ATOM     13  C   UNL d   1       9.738  15.093  -0.580  0.00  0.00     0.113 A 
ATOM     14  C   UNL d   1      10.068  14.981   0.771  0.00  0.00     0.065 A 
ATOM     15 BR   UNL d   1      10.906  13.356   1.342  0.00  0.00    -0.046 Br
ATOM     16  C   UNL d   1       9.785  16.027   1.648  0.00  0.00     0.050 A 
ATOM     17 BR   UNL d   1      10.246  15.850   3.506  0.00  0.00    -0.048 Br
ATOM     18  C   UNL d   1       9.171  17.187   1.175  0.00  0.00     0.048 A 
ATOM     19 BR   UNL d   1       8.777  18.630   2.387  0.00  0.00    -0.048 Br
ATOM     20  C   UNL d   1       8.840  17.299  -0.175  0.00  0.00     0.050 A 
ATOM     21 BR   UNL d   1       7.993  18.889  -0.847  0.00  0.00    -0.048 Br
ATOM     22  C   UNL d   1       9.123  16.253  -1.052  0.00  0.00     0.065 A 
ATOM     23 BR   UNL d   1       8.701  16.332  -2.918  0.00  0.00    -0.046 Br
ENDBRANCH   1  13
TORSDOF 2
ENDMDL
MODEL 6
REMARK VINA RESULT:      -4.8      0.025      2.584
REMARK  2 active torsions:
REMARK  status: ('A' for Active; 'I' for Inactive)
REMARK    1  A    between atoms: O_11  and  C_12 
REMARK    2  A    between atoms: O_11  and  C_13 
ROOT
ATOM      1  O   UNL d   1      10.005  14.068  -1.451  0.00  0.00    -0.305 OA
ENDROOT
BRANCH   1   2
ATOM      2  C   UNL d   1       9.725  15.101  -0.576  0.00  0.00     0.113 A 
ATOM      3  C   UNL d   1      10.061  14.972   0.763  0.00  0.00     0.065 A 
ATOM      4 BR   UNL d   1      10.902  13.346   1.326  0.00  0.00    -0.046 Br
ATOM      5  C   UNL d   1       9.776  16.014   1.646  0.00  0.00     0.050 A 
ATOM      6 BR   UNL d   1      10.241  15.828   3.503  0.00  0.00    -0.048 Br
ATOM      7  C   UNL d   1       9.159  17.174   1.179  0.00  0.00     0.048 A 
ATOM      8 BR   UNL d   1       8.764  18.611   2.399  0.00  0.00    -0.048 Br
ATOM      9  C   UNL d   1       8.827  17.292  -0.169  0.00  0.00     0.050 A 
ATOM     10 BR   UNL d   1       7.976  18.884  -0.833  0.00  0.00    -0.048 Br
ATOM     11  C   UNL d   1       9.111  16.250  -1.053  0.00  0.00     0.065 A 
ATOM     12 BR   UNL d   1       8.686  16.337  -2.917  0.00  0.00    -0.046 Br
ENDBRANCH   1   2
BRANCH   1  13
ATOM     13  C   UNL d   1       8.992  13.634  -2.259  0.00  0.00     0.113 A 
ATOM     14  C   UNL d   1       9.173  13.585  -3.641  0.00  0.00     0.065 A 
ATOM     15 BR   UNL d   1      10.872  14.143  -4.328  0.00  0.00    -0.046 Br
ATOM     16  C   UNL d   1       8.138  13.144  -4.465  0.00  0.00     0.050 A 
ATOM     17 BR   UNL d   1       8.409  13.088  -6.368  0.00  0.00    -0.048 Br
ATOM     18  C   UNL d   1       6.921  12.753  -3.908  0.00  0.00     0.048 A 
ATOM     19 BR   UNL d   1       5.492  12.148  -5.046  0.00  0.00    -0.048 Br
ATOM     20  C   UNL d   1       6.740  12.802  -2.526  0.00  0.00     0.050 A 
ATOM     21 BR   UNL d   1       5.069  12.267  -1.738  0.00  0.00    -0.048 Br
ATOM     22  C   UNL d   1       7.774  13.243  -1.701  0.00  0.00     0.065 A 
ATOM     23 BR   UNL d   1       7.603  13.338   0.203  0.00  0.00    -0.046 Br
ENDBRANCH   1  13
TORSDOF 2
ENDMDL
MODEL 7
REMARK VINA RESULT:      -4.8      0.013      3.655
REMARK  2 active torsions:
REMARK  status: ('A' for Active; 'I' for Inactive)
REMARK    1  A    between atoms: O_11  and  C_12 
REMARK    2  A    between atoms: O_11  and  C_13 
ROOT
ATOM      1  O   UNL d   1      10.011  14.072  -1.437  0.00  0.00    -0.305 OA
ENDROOT
BRANCH   1   2
ATOM      2  C   UNL d   1       9.733  15.111  -0.569  0.00  0.00     0.113 A 
ATOM      3  C   UNL d   1       9.122  16.258  -1.052  0.00  0.00     0.065 A 
ATOM      4 BR   UNL d   1       8.697  16.334  -2.918  0.00  0.00    -0.046 Br
ATOM      5  C   UNL d   1       8.844  17.308  -0.175  0.00  0.00     0.050 A 
ATOM      6 BR   UNL d   1       8.001  18.899  -0.850  0.00  0.00    -0.048 Br
ATOM      7  C   UNL d   1       9.180  17.198   1.174  0.00  0.00     0.048 A 
ATOM      8 BR   UNL d   1       8.798  18.648   2.382  0.00  0.00    -0.048 Br
ATOM      9  C   UNL d   1       9.793  16.039   1.647  0.00  0.00     0.050 A 
ATOM     10 BR   UNL d   1      10.263  15.866   3.503  0.00  0.00    -0.048 Br
ATOM     11  C   UNL d   1      10.072  14.989   0.771  0.00  0.00     0.065 A 
ATOM     12 BR   UNL d   1      10.911  13.366   1.344  0.00  0.00    -0.046 Br
ENDBRANCH   1   2
BRANCH   1  13
ATOM     13  C   UNL d   1       8.998  13.634  -2.241  0.00  0.00     0.113 A 
ATOM     14  C   UNL d   1       9.179  13.574  -3.623  0.00  0.00     0.065 A 
ATOM     15 BR   UNL d   1      10.879  14.123  -4.314  0.00  0.00    -0.046 Br
ATOM     16  C   UNL d   1       8.143  13.130  -4.444  0.00  0.00     0.050 A 
ATOM     17 BR   UNL d   1       8.414  13.058  -6.347  0.00  0.00    -0.048 Br
ATOM     18  C   UNL d   1       6.925  12.745  -3.884  0.00  0.00     0.048 A 
ATOM     19 BR   UNL d   1       5.495  12.135  -5.019  0.00  0.00    -0.048 Br
ATOM     20  C   UNL d   1       6.743  12.805  -2.503  0.00  0.00     0.050 A 
ATOM     21 BR   UNL d   1       5.072  12.280  -1.711  0.00  0.00    -0.048 Br
ATOM     22  C   UNL d   1       7.778  13.250  -1.682  0.00  0.00     0.065 A 
ATOM     23 BR   UNL d   1       7.607  13.360   0.222  0.00  0.00    -0.046 Br
ENDBRANCH   1  13
TORSDOF 2
ENDMDL
MODEL 8
REMARK VINA RESULT:      -4.8      0.099      6.051
REMARK  2 active torsions:
REMARK  status: ('A' for Active; 'I' for Inactive)
REMARK    1  A    between atoms: O_11  and  C_12 
REMARK    2  A    between atoms: O_11  and  C_13 
ROOT
ATOM      1  O   UNL d   1      10.075  14.054  -1.380  0.00  0.00    -0.305 OA
ENDROOT
BRANCH   1   2
ATOM      2  C   UNL d   1       9.045  13.632  -2.200  0.00  0.00     0.113 A 
ATOM      3  C   UNL d   1       7.825  13.285  -1.639  0.00  0.00     0.065 A 
ATOM      4 BR   UNL d   1       7.641  13.411   0.263  0.00  0.00    -0.046 Br
ATOM      5  C   UNL d   1       6.787  12.856  -2.467  0.00  0.00     0.050 A 
ATOM      6 BR   UNL d   1       5.098  12.372  -1.685  0.00  0.00    -0.048 Br
ATOM      7  C   UNL d   1       6.980  12.781  -3.846  0.00  0.00     0.048 A 
ATOM      8 BR   UNL d   1       5.548  12.188  -4.987  0.00  0.00    -0.048 Br
ATOM      9  C   UNL d   1       8.212  13.133  -4.397  0.00  0.00     0.050 A 
ATOM     10 BR   UNL d   1       8.499  13.037  -6.296  0.00  0.00    -0.048 Br
ATOM     11  C   UNL d   1       9.251  13.561  -3.570  0.00  0.00     0.065 A 
ATOM     12 BR   UNL d   1      10.968  14.062  -4.250  0.00  0.00    -0.046 Br
ENDBRANCH   1   2
BRANCH   1  13
ATOM     13  C   UNL d   1       9.814  15.081  -0.517  0.00  0.00     0.113 A 
ATOM     14  C   UNL d   1      10.134  14.956   0.835  0.00  0.00     0.065 A 
ATOM     15 BR   UNL d   1      10.938  13.313   1.402  0.00  0.00    -0.046 Br
ATOM     16  C   UNL d   1       9.865  16.003   1.715  0.00  0.00     0.050 A 
ATOM     17 BR   UNL d   1      10.312  15.808   3.575  0.00  0.00    -0.048 Br
ATOM     18  C   UNL d   1       9.275  17.176   1.245  0.00  0.00     0.048 A 
ATOM     19 BR   UNL d   1       8.901  18.620   2.462  0.00  0.00    -0.048 Br
ATOM     20  C   UNL d   1       8.954  17.301  -0.106  0.00  0.00     0.050 A 
ATOM     21 BR   UNL d   1       8.141  18.910  -0.776  0.00  0.00    -0.048 Br
ATOM     22  C   UNL d   1       9.223  16.254  -0.987  0.00  0.00     0.065 A 
ATOM     23 BR   UNL d   1       8.814  16.350  -2.855  0.00  0.00    -0.046 Br
ENDBRANCH   1  13
TORSDOF 2
ENDMDL
MODEL 9
REMARK VINA RESULT:      -4.8      1.395      2.318
REMARK  2 active torsions:
REMARK  status: ('A' for Active; 'I' for Inactive)
REMARK    1  A    between atoms: O_11  and  C_12 
REMARK    2  A    between atoms: O_11  and  C_13 
ROOT
ATOM      1  O   UNL d   1       7.679  14.427  -0.929  0.00  0.00    -0.305 OA
ENDROOT
BRANCH   1   2
ATOM      2  C   UNL d   1       8.366  15.470  -0.337  0.00  0.00     0.113 A 
ATOM      3  C   UNL d   1       8.945  15.285   0.910  0.00  0.00     0.065 A 
ATOM      4 BR   UNL d   1       8.752  13.573   1.746  0.00  0.00    -0.046 Br
ATOM      5  C   UNL d   1       9.636  16.339   1.508  0.00  0.00     0.050 A 
ATOM      6 BR   UNL d   1      10.434  16.079   3.239  0.00  0.00    -0.048 Br
ATOM      7  C   UNL d   1       9.741  17.565   0.853  0.00  0.00     0.048 A 
ATOM      8 BR   UNL d   1      10.693  19.020   1.681  0.00  0.00    -0.048 Br
ATOM      9  C   UNL d   1       9.155  17.738  -0.400  0.00  0.00     0.050 A 
ATOM     10 BR   UNL d   1       9.289  19.421  -1.321  0.00  0.00    -0.048 Br
ATOM     11  C   UNL d   1       8.463  16.685  -0.999  0.00  0.00     0.065 A 
ATOM     12 BR   UNL d   1       7.633  16.844  -2.716  0.00  0.00    -0.046 Br
ENDBRANCH   1   2
BRANCH   1  13
ATOM     13  C   UNL d   1       8.079  14.035  -2.175  0.00  0.00     0.113 A 
ATOM     14  C   UNL d   1       7.147  13.931  -3.208  0.00  0.00     0.065 A 
ATOM     15 BR   UNL d   1       5.325  14.355  -2.797  0.00  0.00    -0.046 Br
ATOM     16  C   UNL d   1       7.555  13.528  -4.479  0.00  0.00     0.050 A 
ATOM     17 BR   UNL d   1       6.253  13.388  -5.886  0.00  0.00    -0.048 Br
ATOM     18  C   UNL d   1       8.896  13.229  -4.718  0.00  0.00     0.048 A 
ATOM     19 BR   UNL d   1       9.459  12.670  -6.472  0.00  0.00    -0.048 Br
ATOM     20  C   UNL d   1       9.828  13.333  -3.686  0.00  0.00     0.050 A 
ATOM     21 BR   UNL d   1      11.682  12.925  -3.995  0.00  0.00    -0.048 Br
ATOM     22  C   UNL d   1       9.420  13.735  -2.415  0.00  0.00     0.065 A 
ATOM     23 BR   UNL d   1      10.639  13.903  -0.948  0.00  0.00    -0.046 Br
ENDBRANCH   1  13
TORSDOF 2
ENDMDL
