MODEL 1
REMARK VINA RESULT:      -7.1      0.000      0.000
REMARK  2 active torsions:
REMARK  status: ('A' for Active; 'I' for Inactive)
REMARK    1  A    between atoms: O_1  and  C_7 
REMARK    2  A    between atoms: O_2  and  C_20 
ROOT
ATOM      1  C   UNL d   1       8.963  14.461  -3.219  0.00  0.00    -0.014 C 
ATOM      2  C   UNL d   1      10.412  13.935  -3.198  0.00  0.00     0.001 C 
ATOM      3  C   UNL d   1      10.595  12.711  -4.095  0.00  0.00    -0.001 C 
ATOM      4  C   UNL d   1      10.269  13.117  -5.564  0.00  0.00     0.023 C 
ATOM      5  C   UNL d   1       9.100  15.608  -2.199  0.00  0.00     0.126 C 
ATOM      6  C   UNL d   1       8.637  14.905  -4.650  0.00  0.00     0.013 C 
ATOM      7  C   UNL d   1      10.729  13.825  -1.709  0.00  0.00     0.008 C 
ATOM      8  C   UNL d   1       8.865  13.771  -5.668  0.00  0.00     0.010 C 
ATOM      9  C   UNL d   1       9.972  15.010  -1.078  0.00  0.00     0.033 C 
ATOM     10  C   UNL d   1      12.016  12.148  -4.037  0.00  0.00     0.010 C 
ATOM     11  C   UNL d   1       7.896  13.442  -2.743  0.00  0.00     0.018 C 
ATOM     12  C   UNL d   1      10.515  11.956  -6.525  0.00  0.00    -0.047 A 
ATOM     13  C   UNL d   1      12.092  10.851  -4.838  0.00  0.00     0.039 C 
ATOM     14  C   UNL d   1      11.410  10.919  -6.183  0.00  0.00    -0.049 A 
ATOM     15  C   UNL d   1       9.931  11.935  -7.804  0.00  0.00     0.011 A 
ATOM     16  C   UNL d   1      11.653   9.875  -7.093  0.00  0.00     0.044 A 
ATOM     17  C   UNL d   1      10.187  10.897  -8.701  0.00  0.00     0.037 A 
ATOM     18  C   UNL d   1      11.044   9.863  -8.345  0.00  0.00     0.066 A 
ENDROOT
BRANCH   5  19
ATOM     19  O   UNL d   1       7.855  16.063  -1.708  0.00  0.00    -0.395 OA
ATOM     20  H   UNL d   1       7.799  17.017  -1.893  0.00  0.00     0.210 HD
ENDBRANCH   5  19
BRANCH  18  21
ATOM     21  O   UNL d   1      11.294   8.850  -9.216  0.00  0.00    -0.361 OA
ATOM     22  H   UNL d   1      10.986   8.014  -8.823  0.00  0.00     0.217 HD
ENDBRANCH  18  21
TORSDOF 2
ENDMDL
MODEL 2
REMARK VINA RESULT:      -6.3     16.142     17.298
REMARK  2 active torsions:
REMARK  status: ('A' for Active; 'I' for Inactive)
REMARK    1  A    between atoms: O_1  and  C_7 
REMARK    2  A    between atoms: O_2  and  C_20 
ROOT
ATOM      1  C   UNL d   1      13.358  10.882  12.617  0.00  0.00    -0.014 C 
ATOM      2  C   UNL d   1      13.397   9.369  12.909  0.00  0.00     0.001 C 
ATOM      3  C   UNL d   1      13.896   8.562  11.711  0.00  0.00    -0.001 C 
ATOM      4  C   UNL d   1      15.352   9.010  11.380  0.00  0.00     0.023 C 
ATOM      5  C   UNL d   1      12.768  11.378  13.952  0.00  0.00     0.126 C 
ATOM      6  C   UNL d   1      14.790  11.350  12.330  0.00  0.00     0.013 C 
ATOM      7  C   UNL d   1      12.011   9.081  13.480  0.00  0.00     0.008 C 
ATOM      8  C   UNL d   1      15.436  10.548  11.185  0.00  0.00     0.010 C 
ATOM      9  C   UNL d   1      11.664  10.353  14.276  0.00  0.00     0.033 C 
ATOM     10  C   UNL d   1      13.885   7.055  11.971  0.00  0.00     0.010 C 
ATOM     11  C   UNL d   1      12.440  11.293  11.438  0.00  0.00     0.018 C 
ATOM     12  C   UNL d   1      15.940   8.180  10.241  0.00  0.00    -0.047 A 
ATOM     13  C   UNL d   1      14.255   6.306  10.693  0.00  0.00     0.039 C 
ATOM     14  C   UNL d   1      15.437   6.891   9.960  0.00  0.00    -0.049 A 
ATOM     15  C   UNL d   1      17.047   8.636   9.506  0.00  0.00     0.011 A 
ATOM     16  C   UNL d   1      16.012   6.124   8.930  0.00  0.00     0.044 A 
ATOM     17  C   UNL d   1      17.615   7.862   8.492  0.00  0.00     0.037 A 
ATOM     18  C   UNL d   1      17.094   6.607   8.200  0.00  0.00     0.066 A 
ENDROOT
BRANCH   5  19
ATOM     19  O   UNL d   1      12.257  12.694  13.877  0.00  0.00    -0.395 OA
ATOM     20  H   UNL d   1      12.268  13.064  14.776  0.00  0.00     0.210 HD
ENDBRANCH   5  19
BRANCH  18  21
ATOM     21  O   UNL d   1      17.643   5.852   7.212  0.00  0.00    -0.361 OA
ATOM     22  H   UNL d   1      18.137   5.116   7.614  0.00  0.00     0.217 HD
ENDBRANCH  18  21
TORSDOF 2
ENDMDL
MODEL 3
REMARK VINA RESULT:      -6.0      5.262     10.373
REMARK  2 active torsions:
REMARK  status: ('A' for Active; 'I' for Inactive)
REMARK    1  A    between atoms: O_1  and  C_7 
REMARK    2  A    between atoms: O_2  and  C_20 
ROOT
ATOM      1  C   UNL d   1       9.019  14.405   0.176  0.00  0.00    -0.014 C 
ATOM      2  C   UNL d   1       9.729  15.628   0.788  0.00  0.00     0.001 C 
ATOM      3  C   UNL d   1       9.114  16.044   2.124  0.00  0.00    -0.001 C 
ATOM      4  C   UNL d   1       9.270  14.865   3.132  0.00  0.00     0.023 C 
ATOM      5  C   UNL d   1       9.807  14.294  -1.144  0.00  0.00     0.126 C 
ATOM      6  C   UNL d   1       9.197  13.221   1.135  0.00  0.00     0.013 C 
ATOM      7  C   UNL d   1       9.764  16.631  -0.363  0.00  0.00     0.008 C 
ATOM      8  C   UNL d   1       8.686  13.548   2.551  0.00  0.00     0.010 C 
ATOM      9  C   UNL d   1       9.952  15.754  -1.615  0.00  0.00     0.033 C 
ATOM     10  C   UNL d   1       9.775  17.292   2.712  0.00  0.00     0.010 C 
ATOM     11  C   UNL d   1       7.510  14.606  -0.113  0.00  0.00     0.018 C 
ATOM     12  C   UNL d   1       8.749  15.248   4.516  0.00  0.00    -0.047 A 
ATOM     13  C   UNL d   1       9.025  17.733   3.966  0.00  0.00     0.039 C 
ATOM     14  C   UNL d   1       8.681  16.603   4.905  0.00  0.00    -0.049 A 
ATOM     15  C   UNL d   1       8.412  14.266   5.463  0.00  0.00     0.011 A 
ATOM     16  C   UNL d   1       8.233  16.939   6.196  0.00  0.00     0.044 A 
ATOM     17  C   UNL d   1       7.977  14.612   6.744  0.00  0.00     0.037 A 
ATOM     18  C   UNL d   1       7.882  15.949   7.109  0.00  0.00     0.066 A 
ENDROOT
BRANCH   5  19
ATOM     19  O   UNL d   1       9.157  13.493  -2.111  0.00  0.00    -0.395 OA
ATOM     20  H   UNL d   1       9.065  12.600  -1.736  0.00  0.00     0.210 HD
ENDBRANCH   5  19
BRANCH  18  21
ATOM     21  O   UNL d   1       7.455  16.289   8.354  0.00  0.00    -0.361 OA
ATOM     22  H   UNL d   1       8.230  16.405   8.932  0.00  0.00     0.217 HD
ENDBRANCH  18  21
TORSDOF 2
ENDMDL
MODEL 4
REMARK VINA RESULT:      -5.9      3.234      5.818
REMARK  2 active torsions:
REMARK  status: ('A' for Active; 'I' for Inactive)
REMARK    1  A    between atoms: O_1  and  C_7 
REMARK    2  A    between atoms: O_2  and  C_20 
ROOT
ATOM      1  C   UNL d   1       9.471  14.986   2.241  0.00  0.00    -0.014 C 
ATOM      2  C   UNL d   1       8.208  14.781   1.381  0.00  0.00     0.001 C 
ATOM      3  C   UNL d   1       8.485  14.988  -0.108  0.00  0.00    -0.001 C 
ATOM      4  C   UNL d   1       9.538  13.936  -0.571  0.00  0.00     0.023 C 
ATOM      5  C   UNL d   1       8.856  14.780   3.639  0.00  0.00     0.126 C 
ATOM      6  C   UNL d   1      10.505  13.931   1.829  0.00  0.00     0.013 C 
ATOM      7  C   UNL d   1       7.161  15.648   2.075  0.00  0.00     0.008 C 
ATOM      8  C   UNL d   1      10.809  13.984   0.320  0.00  0.00     0.010 C 
ATOM      9  C   UNL d   1       7.512  15.531   3.570  0.00  0.00     0.033 C 
ATOM     10  C   UNL d   1       7.226  14.843  -0.965  0.00  0.00     0.010 C 
ATOM     11  C   UNL d   1      10.108  16.395   2.136  0.00  0.00     0.018 C 
ATOM     12  C   UNL d   1       9.796  14.035  -2.072  0.00  0.00    -0.047 A 
ATOM     13  C   UNL d   1       7.542  15.201  -2.415  0.00  0.00     0.039 C 
ATOM     14  C   UNL d   1       8.825  14.596  -2.930  0.00  0.00    -0.049 A 
ATOM     15  C   UNL d   1      10.958  13.493  -2.648  0.00  0.00     0.011 A 
ATOM     16  C   UNL d   1       9.062  14.649  -4.316  0.00  0.00     0.044 A 
ATOM     17  C   UNL d   1      11.177  13.544  -4.026  0.00  0.00     0.037 A 
ATOM     18  C   UNL d   1      10.232  14.127  -4.860  0.00  0.00     0.066 A 
ENDROOT
BRANCH   5  19
ATOM     19  O   UNL d   1       9.677  15.267   4.682  0.00  0.00    -0.395 OA
ATOM     20  H   UNL d   1      10.200  16.004   4.322  0.00  0.00     0.210 HD
ENDBRANCH   5  19
BRANCH  18  21
ATOM     21  O   UNL d   1      10.444  14.180  -6.202  0.00  0.00    -0.361 OA
ATOM     22  H   UNL d   1      11.204  14.762  -6.378  0.00  0.00     0.217 HD
ENDBRANCH  18  21
TORSDOF 2
ENDMDL
MODEL 5
REMARK VINA RESULT:      -5.9      3.896      8.765
REMARK  2 active torsions:
REMARK  status: ('A' for Active; 'I' for Inactive)
REMARK    1  A    between atoms: O_1  and  C_7 
REMARK    2  A    between atoms: O_2  and  C_20 
ROOT
ATOM      1  C   UNL d   1       8.649  14.709  -1.824  0.00  0.00    -0.014 C 
ATOM      2  C   UNL d   1       9.676  13.963  -0.949  0.00  0.00     0.001 C 
ATOM      3  C   UNL d   1       9.801  14.577   0.445  0.00  0.00    -0.001 C 
ATOM      4  C   UNL d   1       8.420  14.475   1.160  0.00  0.00     0.023 C 
ATOM      5  C   UNL d   1       8.810  13.911  -3.132  0.00  0.00     0.126 C 
ATOM      6  C   UNL d   1       7.273  14.583  -1.157  0.00  0.00     0.013 C 
ATOM      7  C   UNL d   1      10.910  13.880  -1.843  0.00  0.00     0.008 C 
ATOM      8  C   UNL d   1       7.291  15.098   0.295  0.00  0.00     0.010 C 
ATOM      9  C   UNL d   1      10.333  13.709  -3.261  0.00  0.00     0.033 C 
ATOM     10  C   UNL d   1      10.859  13.880   1.302  0.00  0.00     0.010 C 
ATOM     11  C   UNL d   1       8.966  16.207  -2.065  0.00  0.00     0.018 C 
ATOM     12  C   UNL d   1       8.499  14.997   2.593  0.00  0.00    -0.047 A 
ATOM     13  C   UNL d   1      11.032  14.628   2.620  0.00  0.00     0.039 C 
ATOM     14  C   UNL d   1       9.733  15.022   3.279  0.00  0.00    -0.049 A 
ATOM     15  C   UNL d   1       7.342  15.380   3.292  0.00  0.00     0.011 A 
ATOM     16  C   UNL d   1       9.785  15.473   4.611  0.00  0.00     0.044 A 
ATOM     17  C   UNL d   1       7.406  15.817   4.617  0.00  0.00     0.037 A 
ATOM     18  C   UNL d   1       8.628  15.869   5.275  0.00  0.00     0.066 A 
ENDROOT
BRANCH   5  19
ATOM     19  O   UNL d   1       8.273  14.578  -4.258  0.00  0.00    -0.395 OA
ATOM     20  H   UNL d   1       7.338  14.768  -4.065  0.00  0.00     0.210 HD
ENDBRANCH   5  19
BRANCH  18  21
ATOM     21  O   UNL d   1       8.694  16.297   6.564  0.00  0.00    -0.361 OA
ATOM     22  H   UNL d   1       9.186  15.641   7.089  0.00  0.00     0.217 HD
ENDBRANCH  18  21
TORSDOF 2
ENDMDL
MODEL 6
REMARK VINA RESULT:      -5.9      1.882      2.986
REMARK  2 active torsions:
REMARK  status: ('A' for Active; 'I' for Inactive)
REMARK    1  A    between atoms: O_1  and  C_7 
REMARK    2  A    between atoms: O_2  and  C_20 
ROOT
ATOM      1  C   UNL d   1       8.496  14.351  -0.192  0.00  0.00    -0.014 C 
ATOM      2  C   UNL d   1       9.933  14.346  -0.750  0.00  0.00     0.001 C 
ATOM      3  C   UNL d   1      10.040  13.564  -2.059  0.00  0.00    -0.001 C 
ATOM      4  C   UNL d   1       9.131  14.248  -3.124  0.00  0.00     0.023 C 
ATOM      5  C   UNL d   1       8.740  15.133   1.114  0.00  0.00     0.126 C 
ATOM      6  C   UNL d   1       7.592  15.059  -1.209  0.00  0.00     0.013 C 
ATOM      7  C   UNL d   1      10.778  13.919   0.447  0.00  0.00     0.008 C 
ATOM      8  C   UNL d   1       7.677  14.408  -2.602  0.00  0.00     0.010 C 
ATOM      9  C   UNL d   1      10.062  14.555   1.654  0.00  0.00     0.033 C 
ATOM     10  C   UNL d   1      11.473  13.504  -2.592  0.00  0.00     0.010 C 
ATOM     11  C   UNL d   1       7.914  12.949   0.120  0.00  0.00     0.018 C 
ATOM     12  C   UNL d   1       9.258  13.562  -4.483  0.00  0.00    -0.047 A 
ATOM     13  C   UNL d   1      11.532  12.594  -3.816  0.00  0.00     0.039 C 
ATOM     14  C   UNL d   1      10.416  12.823  -4.806  0.00  0.00    -0.049 A 
ATOM     15  C   UNL d   1       8.274  13.723  -5.473  0.00  0.00     0.011 A 
ATOM     16  C   UNL d   1      10.535  12.226  -6.074  0.00  0.00     0.044 A 
ATOM     17  C   UNL d   1       8.408  13.133  -6.732  0.00  0.00     0.037 A 
ATOM     18  C   UNL d   1       9.536  12.380  -7.031  0.00  0.00     0.066 A 
ENDROOT
BRANCH   5  19
ATOM     19  O   UNL d   1       7.686  14.994   2.047  0.00  0.00    -0.395 OA
ATOM     20  H   UNL d   1       8.026  14.473   2.795  0.00  0.00     0.210 HD
ENDBRANCH   5  19
BRANCH  18  21
ATOM     21  O   UNL d   1       9.668  11.801  -8.254  0.00  0.00    -0.361 OA
ATOM     22  H   UNL d   1       9.812  10.845  -8.138  0.00  0.00     0.217 HD
ENDBRANCH  18  21
TORSDOF 2
ENDMDL
MODEL 7
REMARK VINA RESULT:      -5.8     19.497     21.163
REMARK  2 active torsions:
REMARK  status: ('A' for Active; 'I' for Inactive)
REMARK    1  A    between atoms: O_1  and  C_7 
REMARK    2  A    between atoms: O_2  and  C_20 
ROOT
ATOM      1  C   UNL d   1       4.942  -4.635   0.085  0.00  0.00    -0.014 C 
ATOM      2  C   UNL d   1       4.369  -5.904   0.745  0.00  0.00     0.001 C 
ATOM      3  C   UNL d   1       5.078  -6.243   2.056  0.00  0.00    -0.001 C 
ATOM      4  C   UNL d   1       4.869  -5.065   3.055  0.00  0.00     0.023 C 
ATOM      5  C   UNL d   1       4.087  -4.614  -1.197  0.00  0.00     0.126 C 
ATOM      6  C   UNL d   1       4.708  -3.454   1.036  0.00  0.00     0.013 C 
ATOM      7  C   UNL d   1       4.366  -6.925  -0.389  0.00  0.00     0.008 C 
ATOM      8  C   UNL d   1       5.310  -3.714   2.430  0.00  0.00     0.010 C 
ATOM      9  C   UNL d   1       4.045  -6.088  -1.642  0.00  0.00     0.033 C 
ATOM     10  C   UNL d   1       4.554  -7.533   2.691  0.00  0.00     0.010 C 
ATOM     11  C   UNL d   1       6.448  -4.712  -0.273  0.00  0.00     0.018 C 
ATOM     12  C   UNL d   1       5.484  -5.379   4.417  0.00  0.00    -0.047 A 
ATOM     13  C   UNL d   1       5.397  -7.887   3.913  0.00  0.00     0.039 C 
ATOM     14  C   UNL d   1       5.686  -6.716   4.820  0.00  0.00    -0.049 A 
ATOM     15  C   UNL d   1       5.780  -4.356   5.334  0.00  0.00     0.011 A 
ATOM     16  C   UNL d   1       6.221  -6.992   6.092  0.00  0.00     0.044 A 
ATOM     17  C   UNL d   1       6.303  -4.642   6.597  0.00  0.00     0.037 A 
ATOM     18  C   UNL d   1       6.528  -5.960   6.975  0.00  0.00     0.066 A 
ENDROOT
BRANCH   5  19
ATOM     19  O   UNL d   1       4.620  -3.777  -2.204  0.00  0.00    -0.395 OA
ATOM     20  H   UNL d   1       5.423  -3.360  -1.844  0.00  0.00     0.210 HD
ENDBRANCH   5  19
BRANCH  18  21
ATOM     21  O   UNL d   1       7.040  -6.242   8.203  0.00  0.00    -0.361 OA
ATOM     22  H   UNL d   1       7.800  -6.841   8.098  0.00  0.00     0.217 HD
ENDBRANCH  18  21
TORSDOF 2
ENDMDL
MODEL 8
REMARK VINA RESULT:      -5.7      3.322      7.539
REMARK  2 active torsions:
REMARK  status: ('A' for Active; 'I' for Inactive)
REMARK    1  A    between atoms: O_1  and  C_7 
REMARK    2  A    between atoms: O_2  and  C_20 
ROOT
ATOM      1  C   UNL d   1       9.588  12.254 -12.090  0.00  0.00    -0.014 C 
ATOM      2  C   UNL d   1       9.736  10.814 -11.562  0.00  0.00     0.001 C 
ATOM      3  C   UNL d   1      10.469  10.763 -10.221  0.00  0.00    -0.001 C 
ATOM      4  C   UNL d   1       9.640  11.561  -9.170  0.00  0.00     0.023 C 
ATOM      5  C   UNL d   1       8.896  11.956 -13.435  0.00  0.00     0.126 C 
ATOM      6  C   UNL d   1       8.739  13.046 -11.088  0.00  0.00     0.013 C 
ATOM      7  C   UNL d   1      10.307  10.053 -12.756  0.00  0.00     0.008 C 
ATOM      8  C   UNL d   1       9.336  13.000  -9.669  0.00  0.00     0.010 C 
ATOM      9  C   UNL d   1       9.645  10.723 -13.975  0.00  0.00     0.033 C 
ATOM     10  C   UNL d   1      10.670   9.333  -9.716  0.00  0.00     0.010 C 
ATOM     11  C   UNL d   1      10.927  12.999 -12.328  0.00  0.00     0.018 C 
ATOM     12  C   UNL d   1      10.278  11.478  -7.785  0.00  0.00    -0.047 A 
ATOM     13  C   UNL d   1      11.528   9.347  -8.454  0.00  0.00     0.039 C 
ATOM     14  C   UNL d   1      11.132  10.404  -7.453  0.00  0.00    -0.049 A 
ATOM     15  C   UNL d   1       9.963  12.412  -6.783  0.00  0.00     0.011 A 
ATOM     16  C   UNL d   1      11.684  10.322  -6.161  0.00  0.00     0.044 A 
ATOM     17  C   UNL d   1      10.512  12.315  -5.502  0.00  0.00     0.037 A 
ATOM     18  C   UNL d   1      11.376  11.272  -5.192  0.00  0.00     0.066 A 
ENDROOT
BRANCH   5  19
ATOM     19  O   UNL d   1       8.952  13.042 -14.339  0.00  0.00    -0.395 OA
ATOM     20  H   UNL d   1       9.535  12.781 -15.073  0.00  0.00     0.210 HD
ENDBRANCH   5  19
BRANCH  18  21
ATOM     21  O   UNL d   1      11.914  11.176  -3.947  0.00  0.00    -0.361 OA
ATOM     22  H   UNL d   1      11.717  10.294  -3.586  0.00  0.00     0.217 HD
ENDBRANCH  18  21
TORSDOF 2
ENDMDL
MODEL 9
REMARK VINA RESULT:      -5.6     19.744     20.845
REMARK  2 active torsions:
REMARK  status: ('A' for Active; 'I' for Inactive)
REMARK    1  A    between atoms: O_1  and  C_7 
REMARK    2  A    between atoms: O_2  and  C_20 
ROOT
ATOM      1  C   UNL d   1       5.022  -6.737   5.373  0.00  0.00    -0.014 C 
ATOM      2  C   UNL d   1       5.092  -5.235   5.034  0.00  0.00     0.001 C 
ATOM      3  C   UNL d   1       5.323  -4.990   3.543  0.00  0.00    -0.001 C 
ATOM      4  C   UNL d   1       4.124  -5.590   2.747  0.00  0.00     0.023 C 
ATOM      5  C   UNL d   1       4.857  -6.640   6.902  0.00  0.00     0.126 C 
ATOM      6  C   UNL d   1       3.821  -7.338   4.631  0.00  0.00     0.013 C 
ATOM      7  C   UNL d   1       6.095  -4.689   6.046  0.00  0.00     0.008 C 
ATOM      8  C   UNL d   1       3.898  -7.082   3.114  0.00  0.00     0.010 C 
ATOM      9  C   UNL d   1       5.840  -5.527   7.313  0.00  0.00     0.033 C 
ATOM     10  C   UNL d   1       5.450  -3.503   3.205  0.00  0.00     0.010 C 
ATOM     11  C   UNL d   1       6.297  -7.543   5.019  0.00  0.00     0.018 C 
ATOM     12  C   UNL d   1       4.254  -5.303   1.253  0.00  0.00    -0.047 A 
ATOM     13  C   UNL d   1       5.821  -3.337   1.734  0.00  0.00     0.039 C 
ATOM     14  C   UNL d   1       5.024  -4.211   0.797  0.00  0.00    -0.049 A 
ATOM     15  C   UNL d   1       3.543  -6.058   0.304  0.00  0.00     0.011 A 
ATOM     16  C   UNL d   1       5.105  -3.938  -0.580  0.00  0.00     0.044 A 
ATOM     17  C   UNL d   1       3.626  -5.771  -1.060  0.00  0.00     0.037 A 
ATOM     18  C   UNL d   1       4.411  -4.714  -1.504  0.00  0.00     0.066 A 
ENDROOT
BRANCH   5  19
ATOM     19  O   UNL d   1       5.134  -7.857   7.567  0.00  0.00    -0.395 OA
ATOM     20  H   UNL d   1       4.476  -8.509   7.268  0.00  0.00     0.210 HD
ENDBRANCH   5  19
BRANCH  18  21
ATOM     21  O   UNL d   1       4.495  -4.434  -2.831  0.00  0.00    -0.361 OA
ATOM     22  H   UNL d   1       3.596  -4.338  -3.191  0.00  0.00     0.217 HD
ENDBRANCH  18  21
TORSDOF 2
ENDMDL
