MODEL 1
REMARK VINA RESULT:      -6.2      0.000      0.000
REMARK  1 active torsions:
REMARK  status: ('A' for Active; 'I' for Inactive)
REMARK    1  A    between atoms: O_1  and  C_13 
ROOT
ATOM      1  O   UNL d   1       6.002  16.545   9.147  0.00  0.00    -0.298 OA
ATOM      2  C   UNL d   1       7.481  15.663   2.977  0.00  0.00    -0.005 C 
ATOM      3  C   UNL d   1       8.415  15.949   4.194  0.00  0.00    -0.002 C 
ATOM      4  C   UNL d   1       8.295  15.823   1.689  0.00  0.00     0.001 C 
ATOM      5  C   UNL d   1       9.497  14.861   1.618  0.00  0.00    -0.014 C 
ATOM      6  C   UNL d   1       7.652  15.863   5.569  0.00  0.00    -0.036 C 
ATOM      7  C   UNL d   1       6.406  16.802   5.508  0.00  0.00     0.001 C 
ATOM      8  C   UNL d   1       9.720  15.107   4.136  0.00  0.00     0.007 C 
ATOM      9  C   UNL d   1      10.443  15.196   2.780  0.00  0.00     0.012 C 
ATOM     10  C   UNL d   1       6.269  16.603   2.988  0.00  0.00     0.006 C 
ATOM     11  C   UNL d   1       7.604  15.628   0.341  0.00  0.00     0.008 C 
ATOM     12  C   UNL d   1      10.034  15.232   0.223  0.00  0.00     0.126 C 
ATOM     13  C   UNL d   1       5.499  16.524   4.301  0.00  0.00     0.006 C 
ATOM     14  C   UNL d   1       8.764  15.377  -0.639  0.00  0.00     0.033 C 
ATOM     15  C   UNL d   1       8.586  16.350   6.724  0.00  0.00     0.017 C 
ATOM     16  C   UNL d   1       9.125  13.357   1.670  0.00  0.00     0.018 C 
ATOM     17  C   UNL d   1       7.233  14.400   5.874  0.00  0.00     0.016 C 
ATOM     18  C   UNL d   1       5.579  16.767   6.803  0.00  0.00     0.083 C 
ATOM     19  C   UNL d   1       7.907  17.151   7.834  0.00  0.00     0.079 C 
ATOM     20  C   UNL d   1       6.463  16.771   8.028  0.00  0.00     0.127 C 
ENDROOT
BRANCH  12  21
ATOM     21  O   UNL d   1      10.919  14.262  -0.305  0.00  0.00    -0.395 OA
ATOM     22  H   UNL d   1      11.832  14.569  -0.183  0.00  0.00     0.210 HD
ENDBRANCH  12  21
TORSDOF 1
ENDMDL
MODEL 2
REMARK VINA RESULT:      -6.1      1.871      3.548
REMARK  1 active torsions:
REMARK  status: ('A' for Active; 'I' for Inactive)
REMARK    1  A    between atoms: O_1  and  C_13 
ROOT
ATOM      1  O   UNL d   1       8.449  16.517   7.561  0.00  0.00    -0.298 OA
ATOM      2  C   UNL d   1       9.482  15.065   1.408  0.00  0.00    -0.005 C 
ATOM      3  C   UNL d   1       8.226  14.801   2.297  0.00  0.00    -0.002 C 
ATOM      4  C   UNL d   1       9.335  14.270   0.106  0.00  0.00     0.001 C 
ATOM      5  C   UNL d   1       8.078  14.662  -0.695  0.00  0.00    -0.014 C 
ATOM      6  C   UNL d   1       8.310  15.535   3.687  0.00  0.00    -0.036 C 
ATOM      7  C   UNL d   1       9.655  15.143   4.378  0.00  0.00     0.001 C 
ATOM      8  C   UNL d   1       6.902  15.052   1.523  0.00  0.00     0.007 C 
ATOM      9  C   UNL d   1       6.847  14.335   0.161  0.00  0.00     0.012 C 
ATOM     10  C   UNL d   1      10.767  14.680   2.152  0.00  0.00     0.006 C 
ATOM     11  C   UNL d   1      10.452  14.328  -0.934  0.00  0.00     0.008 C 
ATOM     12  C   UNL d   1       8.269  13.753  -1.923  0.00  0.00     0.126 C 
ATOM     13  C   UNL d   1      10.883  15.393   3.494  0.00  0.00     0.006 C 
ATOM     14  C   UNL d   1       9.776  13.855  -2.233  0.00  0.00     0.033 C 
ATOM     15  C   UNL d   1       7.129  15.075   4.601  0.00  0.00     0.017 C 
ATOM     16  C   UNL d   1       8.027  16.150  -1.129  0.00  0.00     0.018 C 
ATOM     17  C   UNL d   1       8.206  17.072   3.504  0.00  0.00     0.016 C 
ATOM     18  C   UNL d   1       9.840  15.834   5.738  0.00  0.00     0.083 C 
ATOM     19  C   UNL d   1       7.459  14.917   6.085  0.00  0.00     0.079 C 
ATOM     20  C   UNL d   1       8.559  15.840   6.539  0.00  0.00     0.127 C 
ENDROOT
BRANCH  12  21
ATOM     21  O   UNL d   1       7.478  14.144  -3.029  0.00  0.00    -0.395 OA
ATOM     22  H   UNL d   1       7.121  15.032  -2.863  0.00  0.00     0.210 HD
ENDBRANCH  12  21
TORSDOF 1
ENDMDL
MODEL 3
REMARK VINA RESULT:      -5.9      1.705      6.932
REMARK  1 active torsions:
REMARK  status: ('A' for Active; 'I' for Inactive)
REMARK    1  A    between atoms: O_1  and  C_13 
ROOT
ATOM      1  O   UNL d   1       9.680  13.945  -3.415  0.00  0.00    -0.298 OA
ATOM      2  C   UNL d   1       9.252  15.110   2.870  0.00  0.00    -0.005 C 
ATOM      3  C   UNL d   1       8.732  15.953   1.663  0.00  0.00    -0.002 C 
ATOM      4  C   UNL d   1       9.153  15.963   4.139  0.00  0.00     0.001 C 
ATOM      5  C   UNL d   1       7.712  16.416   4.444  0.00  0.00    -0.014 C 
ATOM      6  C   UNL d   1       8.845  15.177   0.297  0.00  0.00    -0.036 C 
ATOM      7  C   UNL d   1      10.317  14.685   0.123  0.00  0.00     0.001 C 
ATOM      8  C   UNL d   1       7.327  16.557   1.937  0.00  0.00     0.007 C 
ATOM      9  C   UNL d   1       7.235  17.300   3.283  0.00  0.00     0.012 C 
ATOM     10  C   UNL d   1      10.692  14.641   2.627  0.00  0.00     0.006 C 
ATOM     11  C   UNL d   1       9.632  15.382   5.467  0.00  0.00     0.008 C 
ATOM     12  C   UNL d   1       7.959  17.167   5.765  0.00  0.00     0.126 C 
ATOM     13  C   UNL d   1      10.826  13.869   1.319  0.00  0.00     0.006 C 
ATOM     14  C   UNL d   1       8.951  16.267   6.527  0.00  0.00     0.033 C 
ATOM     15  C   UNL d   1       8.499  16.137  -0.887  0.00  0.00     0.017 C 
ATOM     16  C   UNL d   1       6.704  15.259   4.663  0.00  0.00     0.018 C 
ATOM     17  C   UNL d   1       7.852  13.986   0.258  0.00  0.00     0.016 C 
ATOM     18  C   UNL d   1      10.522  13.891  -1.176  0.00  0.00     0.083 C 
ATOM     19  C   UNL d   1       9.326  15.949  -2.159  0.00  0.00     0.079 C 
ATOM     20  C   UNL d   1       9.803  14.533  -2.340  0.00  0.00     0.127 C 
ENDROOT
BRANCH  12  21
ATOM     21  O   UNL d   1       6.774  17.387   6.507  0.00  0.00    -0.395 OA
ATOM     22  H   UNL d   1       6.545  18.330   6.463  0.00  0.00     0.210 HD
ENDBRANCH  12  21
TORSDOF 1
ENDMDL
MODEL 4
REMARK VINA RESULT:      -5.9      4.178      9.144
REMARK  1 active torsions:
REMARK  status: ('A' for Active; 'I' for Inactive)
REMARK    1  A    between atoms: O_1  and  C_13 
ROOT
ATOM      1  O   UNL d   1       8.597  14.092  -7.948  0.00  0.00    -0.298 OA
ATOM      2  C   UNL d   1      10.047  13.789  -1.716  0.00  0.00    -0.005 C 
ATOM      3  C   UNL d   1       9.161  14.820  -2.484  0.00  0.00    -0.002 C 
ATOM      4  C   UNL d   1      10.308  14.326  -0.305  0.00  0.00     0.001 C 
ATOM      5  C   UNL d   1       9.013  14.551   0.499  0.00  0.00    -0.014 C 
ATOM      6  C   UNL d   1       8.882  14.381  -3.970  0.00  0.00    -0.036 C 
ATOM      7  C   UNL d   1      10.248  14.091  -4.670  0.00  0.00     0.001 C 
ATOM      8  C   UNL d   1       7.886  15.203  -1.682  0.00  0.00     0.007 C 
ATOM      9  C   UNL d   1       8.181  15.616  -0.229  0.00  0.00     0.012 C 
ATOM     10  C   UNL d   1      11.360  13.533  -2.465  0.00  0.00     0.006 C 
ATOM     11  C   UNL d   1      11.183  13.517   0.651  0.00  0.00     0.008 C 
ATOM     12  C   UNL d   1       9.624  15.013   1.835  0.00  0.00     0.126 C 
ATOM     13  C   UNL d   1      11.118  13.087  -3.903  0.00  0.00     0.006 C 
ATOM     14  C   UNL d   1      10.826  14.071   2.042  0.00  0.00     0.033 C 
ATOM     15  C   UNL d   1       8.165  15.539  -4.738  0.00  0.00     0.017 C 
ATOM     16  C   UNL d   1       8.154  13.278   0.710  0.00  0.00     0.018 C 
ATOM     17  C   UNL d   1       7.960  13.134  -4.010  0.00  0.00     0.016 C 
ATOM     18  C   UNL d   1      10.076  13.630  -6.126  0.00  0.00     0.083 C 
ATOM     19  C   UNL d   1       8.576  15.722  -6.199  0.00  0.00     0.079 C 
ATOM     20  C   UNL d   1       9.020  14.436  -6.845  0.00  0.00     0.127 C 
ENDROOT
BRANCH  12  21
ATOM     21  O   UNL d   1       8.711  14.942   2.914  0.00  0.00    -0.395 OA
ATOM     22  H   UNL d   1       8.274  15.803   3.014  0.00  0.00     0.210 HD
ENDBRANCH  12  21
TORSDOF 1
ENDMDL
MODEL 5
REMARK VINA RESULT:      -5.9     23.199     25.708
REMARK  1 active torsions:
REMARK  status: ('A' for Active; 'I' for Inactive)
REMARK    1  A    between atoms: O_1  and  C_13 
ROOT
ATOM      1  O   UNL d   1      10.537 -13.491   2.432  0.00  0.00    -0.298 OA
ATOM      2  C   UNL d   1       7.724  -8.627   5.508  0.00  0.00    -0.005 C 
ATOM      3  C   UNL d   1       7.406  -9.237   4.107  0.00  0.00    -0.002 C 
ATOM      4  C   UNL d   1       6.959  -7.307   5.651  0.00  0.00     0.001 C 
ATOM      5  C   UNL d   1       5.433  -7.484   5.531  0.00  0.00    -0.014 C 
ATOM      6  C   UNL d   1       8.192 -10.576   3.843  0.00  0.00    -0.036 C 
ATOM      7  C   UNL d   1       9.714 -10.314   4.076  0.00  0.00     0.001 C 
ATOM      8  C   UNL d   1       5.876  -9.336   3.850  0.00  0.00     0.007 C 
ATOM      9  C   UNL d   1       5.125  -8.020   4.126  0.00  0.00     0.012 C 
ATOM     10  C   UNL d   1       9.234  -8.416   5.680  0.00  0.00     0.006 C 
ATOM     11  C   UNL d   1       7.122  -6.485   6.928  0.00  0.00     0.008 C 
ATOM     12  C   UNL d   1       4.991  -6.030   5.777  0.00  0.00     0.126 C 
ATOM     13  C   UNL d   1      10.018  -9.702   5.449  0.00  0.00     0.006 C 
ATOM     14  C   UNL d   1       5.897  -5.553   6.929  0.00  0.00     0.033 C 
ATOM     15  C   UNL d   1       7.985 -11.027   2.361  0.00  0.00     0.017 C 
ATOM     16  C   UNL d   1       4.807  -8.424   6.593  0.00  0.00     0.018 C 
ATOM     17  C   UNL d   1       7.674 -11.709   4.768  0.00  0.00     0.016 C 
ATOM     18  C   UNL d   1      10.566 -11.576   3.865  0.00  0.00     0.083 C 
ATOM     19  C   UNL d   1       9.203 -11.654   1.682  0.00  0.00     0.079 C 
ATOM     20  C   UNL d   1      10.115 -12.356   2.652  0.00  0.00     0.127 C 
ENDROOT
BRANCH  12  21
ATOM     21  O   UNL d   1       3.620  -5.917   6.106  0.00  0.00    -0.395 OA
ATOM     22  H   UNL d   1       3.540  -5.668   7.042  0.00  0.00     0.210 HD
ENDBRANCH  12  21
TORSDOF 1
ENDMDL
MODEL 6
REMARK VINA RESULT:      -5.8      3.516      6.493
REMARK  1 active torsions:
REMARK  status: ('A' for Active; 'I' for Inactive)
REMARK    1  A    between atoms: O_1  and  C_13 
ROOT
ATOM      1  O   UNL d   1       3.198  11.235  -2.663  0.00  0.00    -0.298 OA
ATOM      2  C   UNL d   1       7.090  14.754   1.012  0.00  0.00    -0.005 C 
ATOM      3  C   UNL d   1       7.197  13.253   0.599  0.00  0.00    -0.002 C 
ATOM      4  C   UNL d   1       8.106  15.028   2.126  0.00  0.00     0.001 C 
ATOM      5  C   UNL d   1       9.557  14.743   1.694  0.00  0.00    -0.014 C 
ATOM      6  C   UNL d   1       6.150  12.858  -0.508  0.00  0.00    -0.036 C 
ATOM      7  C   UNL d   1       4.725  13.266  -0.015  0.00  0.00     0.001 C 
ATOM      8  C   UNL d   1       8.660  12.844   0.267  0.00  0.00     0.007 C 
ATOM      9  C   UNL d   1       9.669  13.250   1.356  0.00  0.00     0.012 C 
ATOM     10  C   UNL d   1       5.664  15.094   1.465  0.00  0.00     0.006 C 
ATOM     11  C   UNL d   1       8.184  16.426   2.736  0.00  0.00     0.008 C 
ATOM     12  C   UNL d   1      10.289  15.169   2.981  0.00  0.00     0.126 C 
ATOM     13  C   UNL d   1       4.630  14.740   0.402  0.00  0.00     0.006 C 
ATOM     14  C   UNL d   1       9.566  16.459   3.413  0.00  0.00     0.033 C 
ATOM     15  C   UNL d   1       6.174  11.312  -0.732  0.00  0.00     0.017 C 
ATOM     16  C   UNL d   1      10.050  15.586   0.490  0.00  0.00     0.018 C 
ATOM     17  C   UNL d   1       6.490  13.546  -1.856  0.00  0.00     0.016 C 
ATOM     18  C   UNL d   1       3.631  12.942  -1.044  0.00  0.00     0.083 C 
ATOM     19  C   UNL d   1       4.818  10.658  -1.001  0.00  0.00     0.079 C 
ATOM     20  C   UNL d   1       3.846  11.588  -1.678  0.00  0.00     0.127 C 
ENDROOT
BRANCH  12  21
ATOM     21  O   UNL d   1      11.674  15.385   2.783  0.00  0.00    -0.395 OA
ATOM     22  H   UNL d   1      12.024  15.891   3.534  0.00  0.00     0.210 HD
ENDBRANCH  12  21
TORSDOF 1
ENDMDL
MODEL 7
REMARK VINA RESULT:      -5.8      1.205      2.762
REMARK  1 active torsions:
REMARK  status: ('A' for Active; 'I' for Inactive)
REMARK    1  A    between atoms: O_1  and  C_13 
ROOT
ATOM      1  O   UNL d   1       5.723  18.393   8.270  0.00  0.00    -0.298 OA
ATOM      2  C   UNL d   1       9.162  15.602   3.642  0.00  0.00    -0.005 C 
ATOM      3  C   UNL d   1       7.626  15.869   3.719  0.00  0.00    -0.002 C 
ATOM      4  C   UNL d   1       9.434  14.655   2.469  0.00  0.00     0.001 C 
ATOM      5  C   UNL d   1       8.970  15.229   1.117  0.00  0.00    -0.014 C 
ATOM      6  C   UNL d   1       7.237  16.793   4.933  0.00  0.00    -0.036 C 
ATOM      7  C   UNL d   1       7.827  16.175   6.240  0.00  0.00     0.001 C 
ATOM      8  C   UNL d   1       7.047  16.334   2.354  0.00  0.00     0.007 C 
ATOM      9  C   UNL d   1       7.449  15.423   1.179  0.00  0.00     0.012 C 
ATOM     10  C   UNL d   1       9.680  15.016   4.961  0.00  0.00     0.006 C 
ATOM     11  C   UNL d   1      10.867  14.205   2.191  0.00  0.00     0.008 C 
ATOM     12  C   UNL d   1       9.437  14.092   0.188  0.00  0.00     0.126 C 
ATOM     13  C   UNL d   1       9.335  15.903   6.152  0.00  0.00     0.006 C 
ATOM     14  C   UNL d   1      10.826  13.709   0.735  0.00  0.00     0.033 C 
ATOM     15  C   UNL d   1       5.682  16.859   5.072  0.00  0.00     0.017 C 
ATOM     16  C   UNL d   1       9.647  16.564   0.715  0.00  0.00     0.018 C 
ATOM     17  C   UNL d   1       7.762  18.237   4.714  0.00  0.00     0.016 C 
ATOM     18  C   UNL d   1       7.520  17.024   7.483  0.00  0.00     0.083 C 
ATOM     19  C   UNL d   1       5.143  16.892   6.502  0.00  0.00     0.079 C 
ATOM     20  C   UNL d   1       6.099  17.536   7.470  0.00  0.00     0.127 C 
ENDROOT
BRANCH  12  21
ATOM     21  O   UNL d   1       9.496  14.478  -1.172  0.00  0.00    -0.395 OA
ATOM     22  H   UNL d   1      10.426  14.504  -1.452  0.00  0.00     0.210 HD
ENDBRANCH  12  21
TORSDOF 1
ENDMDL
MODEL 8
REMARK VINA RESULT:      -5.7     19.684     22.153
REMARK  1 active torsions:
REMARK  status: ('A' for Active; 'I' for Inactive)
REMARK    1  A    between atoms: O_1  and  C_13 
ROOT
ATOM      1  O   UNL d   1       3.249  -4.125  -2.536  0.00  0.00    -0.298 OA
ATOM      2  C   UNL d   1       5.259  -4.881   3.500  0.00  0.00    -0.005 C 
ATOM      3  C   UNL d   1       3.963  -5.408   2.808  0.00  0.00    -0.002 C 
ATOM      4  C   UNL d   1       5.124  -5.088   5.012  0.00  0.00     0.001 C 
ATOM      5  C   UNL d   1       4.932  -6.567   5.398  0.00  0.00    -0.014 C 
ATOM      6  C   UNL d   1       3.984  -5.189   1.249  0.00  0.00    -0.036 C 
ATOM      7  C   UNL d   1       4.272  -3.681   0.961  0.00  0.00     0.001 C 
ATOM      8  C   UNL d   1       3.623  -6.862   3.242  0.00  0.00     0.007 C 
ATOM      9  C   UNL d   1       3.621  -7.057   4.769  0.00  0.00     0.012 C 
ATOM     10  C   UNL d   1       5.495  -3.404   3.160  0.00  0.00     0.006 C 
ATOM     11  C   UNL d   1       6.251  -4.624   5.932  0.00  0.00     0.008 C 
ATOM     12  C   UNL d   1       4.898  -6.424   6.931  0.00  0.00     0.126 C 
ATOM     13  C   UNL d   1       5.539  -3.165   1.656  0.00  0.00     0.006 C 
ATOM     14  C   UNL d   1       6.012  -5.405   7.237  0.00  0.00     0.033 C 
ATOM     15  C   UNL d   1       2.589  -5.552   0.645  0.00  0.00     0.017 C 
ATOM     16  C   UNL d   1       6.093  -7.502   4.970  0.00  0.00     0.018 C 
ATOM     17  C   UNL d   1       5.049  -6.096   0.580  0.00  0.00     0.016 C 
ATOM     18  C   UNL d   1       4.336  -3.371  -0.542  0.00  0.00     0.083 C 
ATOM     19  C   UNL d   1       2.110  -4.664  -0.504  0.00  0.00     0.079 C 
ATOM     20  C   UNL d   1       3.245  -4.085  -1.305  0.00  0.00     0.127 C 
ENDROOT
BRANCH  12  21
ATOM     21  O   UNL d   1       5.109  -7.650   7.605  0.00  0.00    -0.395 OA
ATOM     22  H   UNL d   1       5.637  -8.235   7.038  0.00  0.00     0.210 HD
ENDBRANCH  12  21
TORSDOF 1
ENDMDL
MODEL 9
REMARK VINA RESULT:      -5.7      4.684      9.411
REMARK  1 active torsions:
REMARK  status: ('A' for Active; 'I' for Inactive)
REMARK    1  A    between atoms: O_1  and  C_13 
ROOT
ATOM      1  O   UNL d   1       7.399  13.404  -8.488  0.00  0.00    -0.298 OA
ATOM      2  C   UNL d   1       8.137  13.633  -2.129  0.00  0.00    -0.005 C 
ATOM      3  C   UNL d   1       9.200  13.399  -3.247  0.00  0.00    -0.002 C 
ATOM      4  C   UNL d   1       8.774  13.307  -0.774  0.00  0.00     0.001 C 
ATOM      5  C   UNL d   1      10.006  14.179  -0.467  0.00  0.00    -0.014 C 
ATOM      6  C   UNL d   1       8.621  13.656  -4.689  0.00  0.00    -0.036 C 
ATOM      7  C   UNL d   1       7.329  12.797  -4.869  0.00  0.00     0.001 C 
ATOM      8  C   UNL d   1      10.530  14.147  -2.952  0.00  0.00     0.007 C 
ATOM      9  C   UNL d   1      11.071  13.890  -1.534  0.00  0.00     0.012 C 
ATOM     10  C   UNL d   1       6.888  12.778  -2.376  0.00  0.00     0.006 C 
ATOM     11  C   UNL d   1       7.930  13.424   0.494  0.00  0.00     0.008 C 
ATOM     12  C   UNL d   1      10.343  13.651   0.940  0.00  0.00     0.126 C 
ATOM     13  C   UNL d   1       6.295  13.023  -3.759  0.00  0.00     0.006 C 
ATOM     14  C   UNL d   1       8.970  13.511   1.626  0.00  0.00     0.033 C 
ATOM     15  C   UNL d   1       9.665  13.216  -5.765  0.00  0.00     0.017 C 
ATOM     16  C   UNL d   1       9.723  15.703  -0.417  0.00  0.00     0.018 C 
ATOM     17  C   UNL d   1       8.320  15.164  -4.899  0.00  0.00     0.016 C 
ATOM     18  C   UNL d   1       6.674  13.001  -6.244  0.00  0.00     0.083 C 
ATOM     19  C   UNL d   1       9.090  12.563  -7.022  0.00  0.00     0.079 C 
ATOM     20  C   UNL d   1       7.703  13.050  -7.349  0.00  0.00     0.127 C 
ENDROOT
BRANCH  12  21
ATOM     21  O   UNL d   1      11.205  14.512   1.661  0.00  0.00    -0.395 OA
ATOM     22  H   UNL d   1      10.726  15.329   1.875  0.00  0.00     0.210 HD
ENDBRANCH  12  21
TORSDOF 1
ENDMDL
