MODEL 1
REMARK VINA RESULT:      -6.4      0.000      0.000
REMARK  1 active torsions:
REMARK  status: ('A' for Active; 'I' for Inactive)
REMARK    1  A    between atoms: O_1  and  C_13 
ROOT
ATOM      1  O   UNL d   1      11.149  14.000  -1.418  0.00  0.00    -0.298 OA
ATOM      2  C   UNL d   1       7.417  16.021   3.381  0.00  0.00    -0.005 C 
ATOM      3  C   UNL d   1       8.775  15.252   3.430  0.00  0.00    -0.002 C 
ATOM      4  C   UNL d   1       6.798  16.008   4.782  0.00  0.00     0.001 C 
ATOM      5  C   UNL d   1       7.699  16.675   5.840  0.00  0.00    -0.014 C 
ATOM      6  C   UNL d   1       9.466  15.162   2.018  0.00  0.00    -0.036 C 
ATOM      7  C   UNL d   1       8.446  14.558   1.001  0.00  0.00     0.001 C 
ATOM      8  C   UNL d   1       9.702  15.780   4.560  0.00  0.00     0.007 C 
ATOM      9  C   UNL d   1       9.003  15.871   5.929  0.00  0.00     0.012 C 
ATOM     10  C   UNL d   1       6.472  15.391   2.350  0.00  0.00     0.006 C 
ATOM     11  C   UNL d   1       5.440  16.671   5.003  0.00  0.00     0.008 C 
ATOM     12  C   UNL d   1       6.779  16.549   7.068  0.00  0.00     0.126 C 
ATOM     13  C   UNL d   1       7.109  15.311   0.968  0.00  0.00     0.006 C 
ATOM     14  C   UNL d   1       5.379  16.896   6.525  0.00  0.00     0.033 C 
ATOM     15  C   UNL d   1      10.709  14.218   2.096  0.00  0.00     0.017 C 
ATOM     16  C   UNL d   1       8.026  18.165   5.562  0.00  0.00     0.018 C 
ATOM     17  C   UNL d   1       9.951  16.561   1.554  0.00  0.00     0.016 C 
ATOM     18  C   UNL d   1       9.023  14.454  -0.419  0.00  0.00     0.083 C 
ATOM     19  C   UNL d   1      10.951  13.336   0.871  0.00  0.00     0.079 C 
ATOM     20  C   UNL d   1      10.450  13.960  -0.405  0.00  0.00     0.127 C 
ENDROOT
BRANCH  12  21
ATOM     21  O   UNL d   1       7.156  17.404   8.131  0.00  0.00    -0.395 OA
ATOM     22  H   UNL d   1       8.125  17.423   8.192  0.00  0.00     0.210 HD
ENDBRANCH  12  21
TORSDOF 1
ENDMDL
MODEL 2
REMARK VINA RESULT:      -6.2      2.712      7.552
REMARK  1 active torsions:
REMARK  status: ('A' for Active; 'I' for Inactive)
REMARK    1  A    between atoms: O_1  and  C_13 
ROOT
ATOM      1  O   UNL d   1       8.876  14.810   4.836  0.00  0.00    -0.298 OA
ATOM      2  C   UNL d   1       8.573  14.871  -1.562  0.00  0.00    -0.005 C 
ATOM      3  C   UNL d   1       9.811  14.715  -0.625  0.00  0.00    -0.002 C 
ATOM      4  C   UNL d   1       9.070  15.110  -2.992  0.00  0.00     0.001 C 
ATOM      5  C   UNL d   1       9.941  13.956  -3.523  0.00  0.00    -0.014 C 
ATOM      6  C   UNL d   1       9.402  14.519   0.883  0.00  0.00    -0.036 C 
ATOM      7  C   UNL d   1       8.451  15.687   1.298  0.00  0.00     0.001 C 
ATOM      8  C   UNL d   1      10.813  13.652  -1.157  0.00  0.00     0.007 C 
ATOM      9  C   UNL d   1      11.190  13.856  -2.635  0.00  0.00     0.012 C 
ATOM     10  C   UNL d   1       7.672  16.018  -1.088  0.00  0.00     0.006 C 
ATOM     11  C   UNL d   1       8.051  15.329  -4.109  0.00  0.00     0.008 C 
ATOM     12  C   UNL d   1      10.205  14.476  -4.948  0.00  0.00     0.126 C 
ATOM     13  C   UNL d   1       7.243  15.843   0.364  0.00  0.00     0.006 C 
ATOM     14  C   UNL d   1       8.844  15.044  -5.397  0.00  0.00     0.033 C 
ATOM     15  C   UNL d   1      10.675  14.569   1.788  0.00  0.00     0.017 C 
ATOM     16  C   UNL d   1       9.230  12.580  -3.574  0.00  0.00     0.018 C 
ATOM     17  C   UNL d   1       8.716  13.143   1.091  0.00  0.00     0.016 C 
ATOM     18  C   UNL d   1       7.975  15.568   2.754  0.00  0.00     0.083 C 
ATOM     19  C   UNL d   1      10.502  15.258   3.141  0.00  0.00     0.079 C 
ATOM     20  C   UNL d   1       9.098  15.151   3.674  0.00  0.00     0.127 C 
ENDROOT
BRANCH  12  21
ATOM     21  O   UNL d   1      10.668  13.468  -5.827  0.00  0.00    -0.395 OA
ATOM     22  H   UNL d   1       9.949  12.834  -5.987  0.00  0.00     0.210 HD
ENDBRANCH  12  21
TORSDOF 1
ENDMDL
MODEL 3
REMARK VINA RESULT:      -5.8      1.908      2.896
REMARK  1 active torsions:
REMARK  status: ('A' for Active; 'I' for Inactive)
REMARK    1  A    between atoms: O_1  and  C_13 
ROOT
ATOM      1  O   UNL d   1       9.130  14.826  -4.528  0.00  0.00    -0.298 OA
ATOM      2  C   UNL d   1       8.269  15.475   1.786  0.00  0.00    -0.005 C 
ATOM      3  C   UNL d   1       9.448  14.815   1.004  0.00  0.00    -0.002 C 
ATOM      4  C   UNL d   1       8.404  15.112   3.269  0.00  0.00     0.001 C 
ATOM      5  C   UNL d   1       9.730  15.598   3.885  0.00  0.00    -0.014 C 
ATOM      6  C   UNL d   1       9.366  15.086  -0.545  0.00  0.00    -0.036 C 
ATOM      7  C   UNL d   1       7.958  14.644  -1.055  0.00  0.00     0.001 C 
ATOM      8  C   UNL d   1      10.826  15.152   1.638  0.00  0.00     0.007 C 
ATOM      9  C   UNL d   1      10.880  14.892   3.154  0.00  0.00     0.012 C 
ATOM     10  C   UNL d   1       6.918  15.016   1.223  0.00  0.00     0.006 C 
ATOM     11  C   UNL d   1       7.350  15.609   4.257  0.00  0.00     0.008 C 
ATOM     12  C   UNL d   1       9.514  15.140   5.340  0.00  0.00     0.126 C 
ATOM     13  C   UNL d   1       6.804  15.285  -0.272  0.00  0.00     0.006 C 
ATOM     14  C   UNL d   1       8.041  15.493   5.628  0.00  0.00     0.033 C 
ATOM     15  C   UNL d   1      10.451  14.242  -1.288  0.00  0.00     0.017 C 
ATOM     16  C   UNL d   1       9.945  17.132   3.829  0.00  0.00     0.018 C 
ATOM     17  C   UNL d   1       9.625  16.584  -0.855  0.00  0.00     0.016 C 
ATOM     18  C   UNL d   1       7.772  14.894  -2.560  0.00  0.00     0.083 C 
ATOM     19  C   UNL d   1      10.035  13.668  -2.642  0.00  0.00     0.079 C 
ATOM     20  C   UNL d   1       9.007  14.515  -3.343  0.00  0.00     0.127 C 
ENDROOT
BRANCH  12  21
ATOM     21  O   UNL d   1      10.392  15.769   6.253  0.00  0.00    -0.395 OA
ATOM     22  H   UNL d   1      10.655  16.633   5.895  0.00  0.00     0.210 HD
ENDBRANCH  12  21
TORSDOF 1
ENDMDL
MODEL 4
REMARK VINA RESULT:      -5.8      4.262      7.093
REMARK  1 active torsions:
REMARK  status: ('A' for Active; 'I' for Inactive)
REMARK    1  A    between atoms: O_1  and  C_13 
ROOT
ATOM      1  O   UNL d   1       7.991  13.373  -8.726  0.00  0.00    -0.298 OA
ATOM      2  C   UNL d   1       8.246  13.767  -2.338  0.00  0.00    -0.005 C 
ATOM      3  C   UNL d   1       9.376  13.431  -3.361  0.00  0.00    -0.002 C 
ATOM      4  C   UNL d   1       8.754  13.448  -0.928  0.00  0.00     0.001 C 
ATOM      5  C   UNL d   1      10.012  14.252  -0.548  0.00  0.00    -0.014 C 
ATOM      6  C   UNL d   1       8.928  13.676  -4.851  0.00  0.00    -0.036 C 
ATOM      7  C   UNL d   1       7.602  12.892  -5.109  0.00  0.00     0.001 C 
ATOM      8  C   UNL d   1      10.724  14.105  -2.982  0.00  0.00     0.007 C 
ATOM      9  C   UNL d   1      11.136  13.863  -1.518  0.00  0.00     0.012 C 
ATOM     10  C   UNL d   1       6.968  12.982  -2.659  0.00  0.00     0.006 C 
ATOM     11  C   UNL d   1       7.824  13.658   0.265  0.00  0.00     0.008 C 
ATOM     12  C   UNL d   1      10.205  13.752   0.895  0.00  0.00     0.126 C 
ATOM     13  C   UNL d   1       6.501  13.217  -4.091  0.00  0.00     0.006 C 
ATOM     14  C   UNL d   1       8.776  13.719   1.473  0.00  0.00     0.033 C 
ATOM     15  C   UNL d   1      10.023  13.136  -5.828  0.00  0.00     0.017 C 
ATOM     16  C   UNL d   1       9.824  15.791  -0.564  0.00  0.00     0.018 C 
ATOM     17  C   UNL d   1       8.742  15.191  -5.126  0.00  0.00     0.016 C 
ATOM     18  C   UNL d   1       7.070  13.090  -6.536  0.00  0.00     0.083 C 
ATOM     19  C   UNL d   1       9.506  12.478  -7.107  0.00  0.00     0.079 C 
ATOM     20  C   UNL d   1       8.183  13.039  -7.557  0.00  0.00     0.127 C 
ENDROOT
BRANCH  12  21
ATOM     21  O   UNL d   1      11.061  14.581   1.658  0.00  0.00    -0.395 OA
ATOM     22  H   UNL d   1      11.965  14.229   1.611  0.00  0.00     0.210 HD
ENDBRANCH  12  21
TORSDOF 1
ENDMDL
MODEL 5
REMARK VINA RESULT:      -5.8      3.433      5.279
REMARK  1 active torsions:
REMARK  status: ('A' for Active; 'I' for Inactive)
REMARK    1  A    between atoms: O_1  and  C_13 
ROOT
ATOM      1  O   UNL d   1       3.295  11.149  -2.661  0.00  0.00    -0.298 OA
ATOM      2  C   UNL d   1       7.104  14.758   1.014  0.00  0.00    -0.005 C 
ATOM      3  C   UNL d   1       7.241  13.257   0.610  0.00  0.00    -0.002 C 
ATOM      4  C   UNL d   1       8.109  15.057   2.131  0.00  0.00     0.001 C 
ATOM      5  C   UNL d   1       9.568  14.795   1.709  0.00  0.00    -0.014 C 
ATOM      6  C   UNL d   1       6.206  12.837  -0.500  0.00  0.00    -0.036 C 
ATOM      7  C   UNL d   1       4.772  13.223  -0.017  0.00  0.00     0.001 C 
ATOM      8  C   UNL d   1       8.712  12.873   0.288  0.00  0.00     0.007 C 
ATOM      9  C   UNL d   1       9.708  13.303   1.381  0.00  0.00     0.012 C 
ATOM     10  C   UNL d   1       5.670  15.075   1.457  0.00  0.00     0.006 C 
ATOM     11  C   UNL d   1       8.159  16.459   2.734  0.00  0.00     0.008 C 
ATOM     12  C   UNL d   1      10.285  15.241   2.997  0.00  0.00     0.126 C 
ATOM     13  C   UNL d   1       4.648  14.697   0.391  0.00  0.00     0.006 C 
ATOM     14  C   UNL d   1       9.537  16.521   3.418  0.00  0.00     0.033 C 
ATOM     15  C   UNL d   1       6.259  11.290  -0.715  0.00  0.00     0.017 C 
ATOM     16  C   UNL d   1      10.052  15.640   0.503  0.00  0.00     0.018 C 
ATOM     17  C   UNL d   1       6.542  13.523  -1.851  0.00  0.00     0.016 C 
ATOM     18  C   UNL d   1       3.689  12.873  -1.050  0.00  0.00     0.083 C 
ATOM     19  C   UNL d   1       4.917  10.611  -0.988  0.00  0.00     0.079 C 
ATOM     20  C   UNL d   1       3.932  11.520  -1.674  0.00  0.00     0.127 C 
ENDROOT
BRANCH  12  21
ATOM     21  O   UNL d   1      11.667  15.481   2.805  0.00  0.00    -0.395 OA
ATOM     22  H   UNL d   1      11.821  15.707   1.873  0.00  0.00     0.210 HD
ENDBRANCH  12  21
TORSDOF 1
ENDMDL
MODEL 6
REMARK VINA RESULT:      -5.8      0.925      6.656
REMARK  1 active torsions:
REMARK  status: ('A' for Active; 'I' for Inactive)
REMARK    1  A    between atoms: O_1  and  C_13 
ROOT
ATOM      1  O   UNL d   1       5.617  18.583   8.117  0.00  0.00    -0.298 OA
ATOM      2  C   UNL d   1       9.115  15.588   3.664  0.00  0.00    -0.005 C 
ATOM      3  C   UNL d   1       7.567  15.767   3.761  0.00  0.00    -0.002 C 
ATOM      4  C   UNL d   1       9.419  14.554   2.575  0.00  0.00     0.001 C 
ATOM      5  C   UNL d   1       8.888  14.970   1.190  0.00  0.00    -0.014 C 
ATOM      6  C   UNL d   1       7.150  16.775   4.896  0.00  0.00    -0.036 C 
ATOM      7  C   UNL d   1       7.808  16.317   6.237  0.00  0.00     0.001 C 
ATOM      8  C   UNL d   1       6.929  16.067   2.376  0.00  0.00     0.007 C 
ATOM      9  C   UNL d   1       7.359  15.077   1.279  0.00  0.00     0.012 C 
ATOM     10  C   UNL d   1       9.700  15.159   5.016  0.00  0.00     0.006 C 
ATOM     11  C   UNL d   1      10.871  14.168   2.297  0.00  0.00     0.008 C 
ATOM     12  C   UNL d   1       9.403  13.783   0.356  0.00  0.00     0.126 C 
ATOM     13  C   UNL d   1       9.327  16.130   6.130  0.00  0.00     0.006 C 
ATOM     14  C   UNL d   1      10.827  13.537   0.894  0.00  0.00     0.033 C 
ATOM     15  C   UNL d   1       5.597  16.759   5.074  0.00  0.00     0.017 C 
ATOM     16  C   UNL d   1       9.470  16.301   0.648  0.00  0.00     0.018 C 
ATOM     17  C   UNL d   1       7.578  18.221   4.532  0.00  0.00     0.016 C 
ATOM     18  C   UNL d   1       7.477  17.258   7.406  0.00  0.00     0.083 C 
ATOM     19  C   UNL d   1       5.091  16.891   6.510  0.00  0.00     0.079 C 
ATOM     20  C   UNL d   1       6.027  17.680   7.387  0.00  0.00     0.127 C 
ENDROOT
BRANCH  12  21
ATOM     21  O   UNL d   1       9.407  14.044  -1.035  0.00  0.00    -0.395 OA
ATOM     22  H   UNL d   1       9.116  14.959  -1.185  0.00  0.00     0.210 HD
ENDBRANCH  12  21
TORSDOF 1
ENDMDL
MODEL 7
REMARK VINA RESULT:      -5.7      2.606      3.966
REMARK  1 active torsions:
REMARK  status: ('A' for Active; 'I' for Inactive)
REMARK    1  A    between atoms: O_1  and  C_13 
ROOT
ATOM      1  O   UNL d   1       7.645  13.383  -4.824  0.00  0.00    -0.298 OA
ATOM      2  C   UNL d   1       8.616  14.903   1.322  0.00  0.00    -0.005 C 
ATOM      3  C   UNL d   1       9.281  15.484   0.035  0.00  0.00    -0.002 C 
ATOM      4  C   UNL d   1       9.401  15.396   2.542  0.00  0.00     0.001 C 
ATOM      5  C   UNL d   1       9.426  16.932   2.657  0.00  0.00    -0.014 C 
ATOM      6  C   UNL d   1       8.575  14.987  -1.282  0.00  0.00    -0.036 C 
ATOM      7  C   UNL d   1       8.520  13.426  -1.260  0.00  0.00     0.001 C 
ATOM      8  C   UNL d   1       9.462  17.025   0.119  0.00  0.00     0.007 C 
ATOM      9  C   UNL d   1      10.143  17.490   1.419  0.00  0.00     0.012 C 
ATOM     10  C   UNL d   1       8.574  13.371   1.270  0.00  0.00     0.006 C 
ATOM     11  C   UNL d   1       8.973  14.943   3.937  0.00  0.00     0.008 C 
ATOM     12  C   UNL d   1      10.211  17.074   3.974  0.00  0.00     0.126 C 
ATOM     13  C   UNL d   1       7.878  12.862   0.014  0.00  0.00     0.006 C 
ATOM     14  C   UNL d   1       9.625  15.972   4.879  0.00  0.00     0.033 C 
ATOM     15  C   UNL d   1       9.403  15.439  -2.528  0.00  0.00     0.017 C 
ATOM     16  C   UNL d   1       8.030  17.593   2.788  0.00  0.00     0.018 C 
ATOM     17  C   UNL d   1       7.152  15.592  -1.403  0.00  0.00     0.016 C 
ATOM     18  C   UNL d   1       7.823  12.846  -2.500  0.00  0.00     0.083 C 
ATOM     19  C   UNL d   1       9.462  14.440  -3.684  0.00  0.00     0.079 C 
ATOM     20  C   UNL d   1       8.239  13.565  -3.761  0.00  0.00     0.127 C 
ENDROOT
BRANCH  12  21
ATOM     21  O   UNL d   1      10.083  18.356   4.559  0.00  0.00    -0.395 OA
ATOM     22  H   UNL d   1      10.121  18.266   5.525  0.00  0.00     0.210 HD
ENDBRANCH  12  21
TORSDOF 1
ENDMDL
MODEL 8
REMARK VINA RESULT:      -5.6     27.056     29.434
REMARK  1 active torsions:
REMARK  status: ('A' for Active; 'I' for Inactive)
REMARK    1  A    between atoms: O_1  and  C_13 
ROOT
ATOM      1  O   UNL d   1       7.927 -10.737   2.414  0.00  0.00    -0.298 OA
ATOM      2  C   UNL d   1      13.148 -13.764   4.563  0.00  0.00    -0.005 C 
ATOM      3  C   UNL d   1      12.390 -12.538   5.162  0.00  0.00    -0.002 C 
ATOM      4  C   UNL d   1      14.488 -13.913   5.292  0.00  0.00     0.001 C 
ATOM      5  C   UNL d   1      14.322 -14.135   6.808  0.00  0.00    -0.014 C 
ATOM      6  C   UNL d   1      11.018 -12.268   4.437  0.00  0.00    -0.036 C 
ATOM      7  C   UNL d   1      11.281 -12.147   2.902  0.00  0.00     0.001 C 
ATOM      8  C   UNL d   1      12.287 -12.618   6.711  0.00  0.00     0.007 C 
ATOM      9  C   UNL d   1      13.636 -12.895   7.398  0.00  0.00     0.012 C 
ATOM     10  C   UNL d   1      13.355 -13.592   3.052  0.00  0.00     0.006 C 
ATOM     11  C   UNL d   1      15.446 -15.026   4.872  0.00  0.00     0.008 C 
ATOM     12  C   UNL d   1      15.801 -14.301   7.201  0.00  0.00     0.126 C 
ATOM     13  C   UNL d   1      12.039 -13.349   2.322  0.00  0.00     0.006 C 
ATOM     14  C   UNL d   1      16.390 -15.178   6.078  0.00  0.00     0.033 C 
ATOM     15  C   UNL d   1      10.407 -10.922   4.945  0.00  0.00     0.017 C 
ATOM     16  C   UNL d   1      13.517 -15.403   7.190  0.00  0.00     0.018 C 
ATOM     17  C   UNL d   1      10.004 -13.402   4.740  0.00  0.00     0.016 C 
ATOM     18  C   UNL d   1       9.991 -11.907   2.102  0.00  0.00     0.083 C 
ATOM     19  C   UNL d   1       9.689 -10.079   3.891  0.00  0.00     0.079 C 
ATOM     20  C   UNL d   1       9.087 -10.911   2.790  0.00  0.00     0.127 C 
ENDROOT
BRANCH  12  21
ATOM     21  O   UNL d   1      15.972 -14.895   8.474  0.00  0.00    -0.395 OA
ATOM     22  H   UNL d   1      15.478 -15.730   8.501  0.00  0.00     0.210 HD
ENDBRANCH  12  21
TORSDOF 1
ENDMDL
MODEL 9
REMARK VINA RESULT:      -5.6     28.045     29.497
REMARK  1 active torsions:
REMARK  status: ('A' for Active; 'I' for Inactive)
REMARK    1  A    between atoms: O_1  and  C_13 
ROOT
ATOM      1  O   UNL d   1      12.163 -14.148  -2.039  0.00  0.00    -0.298 OA
ATOM      2  C   UNL d   1      13.323 -13.865   4.255  0.00  0.00    -0.005 C 
ATOM      3  C   UNL d   1      12.486 -12.905   3.352  0.00  0.00    -0.002 C 
ATOM      4  C   UNL d   1      13.526 -13.197   5.619  0.00  0.00     0.001 C 
ATOM      5  C   UNL d   1      12.198 -12.886   6.337  0.00  0.00    -0.014 C 
ATOM      6  C   UNL d   1      12.269 -13.482   1.903  0.00  0.00    -0.036 C 
ATOM      7  C   UNL d   1      13.662 -13.847   1.298  0.00  0.00     0.001 C 
ATOM      8  C   UNL d   1      11.179 -12.438   4.053  0.00  0.00     0.007 C 
ATOM      9  C   UNL d   1      11.413 -11.890   5.473  0.00  0.00     0.012 C 
ATOM     10  C   UNL d   1      14.666 -14.200   3.595  0.00  0.00     0.006 C 
ATOM     11  C   UNL d   1      14.346 -13.917   6.687  0.00  0.00     0.008 C 
ATOM     12  C   UNL d   1      12.752 -12.304   7.650  0.00  0.00     0.126 C 
ATOM     13  C   UNL d   1      14.485 -14.779   2.197  0.00  0.00     0.006 C 
ATOM     14  C   UNL d   1      13.933 -13.230   8.001  0.00  0.00     0.033 C 
ATOM     15  C   UNL d   1      11.602 -12.398   0.996  0.00  0.00     0.017 C 
ATOM     16  C   UNL d   1      11.315 -14.127   6.628  0.00  0.00     0.018 C 
ATOM     17  C   UNL d   1      11.336 -14.721   1.938  0.00  0.00     0.016 C 
ATOM     18  C   UNL d   1      13.552 -14.445  -0.113  0.00  0.00     0.083 C 
ATOM     19  C   UNL d   1      12.082 -12.358  -0.455  0.00  0.00     0.079 C 
ATOM     20  C   UNL d   1      12.539 -13.703  -0.954  0.00  0.00     0.127 C 
ENDROOT
BRANCH  12  21
ATOM     21  O   UNL d   1      11.790 -12.265   8.687  0.00  0.00    -0.395 OA
ATOM     22  H   UNL d   1      12.204 -12.565   9.512  0.00  0.00     0.210 HD
ENDBRANCH  12  21
TORSDOF 1
ENDMDL
