MODEL 1
REMARK VINA RESULT:      -4.0      0.000      0.000
REMARK  12 active torsions:
REMARK  status: ('A' for Active; 'I' for Inactive)
REMARK    1  A    between atoms: P_4  and  O_5 
REMARK    2  A    between atoms: P_4  and  O_6 
REMARK    3  A    between atoms: P_4  and  O_7 
REMARK    4  A    between atoms: O_5  and  C_9 
REMARK    5  A    between atoms: O_6  and  C_10 
REMARK    6  A    between atoms: O_7  and  C_11 
REMARK    7  A    between atoms: C_9  and  C_12 
REMARK    8  A    between atoms: C_10  and  C_13 
REMARK    9  A    between atoms: C_11  and  C_14 
REMARK   10  A    between atoms: C_12  and  C_15 
REMARK   11  A    between atoms: C_13  and  C_16 
REMARK   12  A    between atoms: C_14  and  C_17 
ROOT
ATOM      1  P   UNL d   1      10.246  14.459  -0.813  0.00  0.00     0.477 P 
ATOM      2  O   UNL d   1      10.080  15.939  -1.011  0.00  0.00    -0.227 OA
ENDROOT
BRANCH   1   3
ATOM      3  O   UNL d   1      10.695  14.031   0.685  0.00  0.00    -0.292 OA
BRANCH   3   4
ATOM      4  C   UNL d   1       9.746  13.475   1.581  0.00  0.00     0.181 C 
BRANCH   4   5
ATOM      5  C   UNL d   1       9.359  14.538   2.602  0.00  0.00     0.042 C 
BRANCH   5   6
ATOM      6  C   UNL d   1      10.509  15.458   2.990  0.00  0.00     0.116 C 
ATOM      7 CL   UNL d   1      10.277  17.110   2.374  0.00  0.00    -0.130 Cl
ENDBRANCH   5   6
ENDBRANCH   4   5
ENDBRANCH   3   4
ENDBRANCH   1   3
BRANCH   1   8
ATOM      8  O   UNL d   1      11.348  13.768  -1.778  0.00  0.00    -0.292 OA
BRANCH   8   9
ATOM      9  C   UNL d   1      11.142  13.814  -3.179  0.00  0.00     0.181 C 
BRANCH   9  10
ATOM     10  C   UNL d   1      11.678  12.528  -3.796  0.00  0.00     0.042 C 
BRANCH  10  11
ATOM     11  C   UNL d   1      10.936  12.098  -5.054  0.00  0.00     0.116 C 
ATOM     12 CL   UNL d   1      11.627  10.621  -5.763  0.00  0.00    -0.130 Cl
ENDBRANCH  10  11
ENDBRANCH   9  10
ENDBRANCH   8   9
ENDBRANCH   1   8
BRANCH   1  13
ATOM     13  O   UNL d   1       8.913  13.586  -1.101  0.00  0.00    -0.292 OA
BRANCH  13  14
ATOM     14  C   UNL d   1       7.745  14.260  -1.538  0.00  0.00     0.181 C 
BRANCH  14  15
ATOM     15  C   UNL d   1       7.163  13.509  -2.728  0.00  0.00     0.042 C 
BRANCH  15  16
ATOM     16  C   UNL d   1       7.776  12.130  -2.938  0.00  0.00     0.116 C 
ATOM     17 CL   UNL d   1       6.924  10.874  -2.011  0.00  0.00    -0.130 Cl
ENDBRANCH  15  16
ENDBRANCH  14  15
ENDBRANCH  13  14
ENDBRANCH   1  13
TORSDOF 12
ENDMDL
MODEL 2
REMARK VINA RESULT:      -3.9      1.161      5.817
REMARK  12 active torsions:
REMARK  status: ('A' for Active; 'I' for Inactive)
REMARK    1  A    between atoms: P_4  and  O_5 
REMARK    2  A    between atoms: P_4  and  O_6 
REMARK    3  A    between atoms: P_4  and  O_7 
REMARK    4  A    between atoms: O_5  and  C_9 
REMARK    5  A    between atoms: O_6  and  C_10 
REMARK    6  A    between atoms: O_7  and  C_11 
REMARK    7  A    between atoms: C_9  and  C_12 
REMARK    8  A    between atoms: C_10  and  C_13 
REMARK    9  A    between atoms: C_11  and  C_14 
REMARK   10  A    between atoms: C_12  and  C_15 
REMARK   11  A    between atoms: C_13  and  C_16 
REMARK   12  A    between atoms: C_14  and  C_17 
ROOT
ATOM      1  P   UNL d   1      10.292  14.266  -0.960  0.00  0.00     0.477 P 
ATOM      2  O   UNL d   1      10.157  15.736  -0.683  0.00  0.00    -0.227 OA
ENDROOT
BRANCH   1   3
ATOM      3  O   UNL d   1      11.426  13.894  -2.057  0.00  0.00    -0.292 OA
BRANCH   3   4
ATOM      4  C   UNL d   1      11.048  13.543  -3.379  0.00  0.00     0.181 C 
BRANCH   4   5
ATOM      5  C   UNL d   1      11.829  12.303  -3.796  0.00  0.00     0.042 C 
BRANCH   5   6
ATOM      6  C   UNL d   1      11.139  11.483  -4.878  0.00  0.00     0.116 C 
ATOM      7 CL   UNL d   1      10.266  12.511  -6.038  0.00  0.00    -0.130 Cl
ENDBRANCH   5   6
ENDBRANCH   4   5
ENDBRANCH   3   4
ENDBRANCH   1   3
BRANCH   1   8
ATOM      8  O   UNL d   1       8.945  13.556  -1.512  0.00  0.00    -0.292 OA
BRANCH   8   9
ATOM      9  C   UNL d   1       7.695  14.006  -1.021  0.00  0.00     0.181 C 
BRANCH   9  10
ATOM     10  C   UNL d   1       6.992  12.841  -0.333  0.00  0.00     0.042 C 
BRANCH  10  11
ATOM     11  C   UNL d   1       6.924  11.580  -1.185  0.00  0.00     0.116 C 
ATOM     12 CL   UNL d   1       5.574  10.525  -0.707  0.00  0.00    -0.130 Cl
ENDBRANCH  10  11
ENDBRANCH   9  10
ENDBRANCH   8   9
ENDBRANCH   1   8
BRANCH   1  13
ATOM     13  O   UNL d   1      10.672  13.368   0.334  0.00  0.00    -0.292 OA
BRANCH  13  14
ATOM     14  C   UNL d   1      10.759  14.006   1.597  0.00  0.00     0.181 C 
BRANCH  14  15
ATOM     15  C   UNL d   1       9.390  13.963   2.262  0.00  0.00     0.042 C 
BRANCH  15  16
ATOM     16  C   UNL d   1       9.061  15.214   3.065  0.00  0.00     0.116 C 
ATOM     17 CL   UNL d   1      10.340  16.444   2.934  0.00  0.00    -0.130 Cl
ENDBRANCH  15  16
ENDBRANCH  14  15
ENDBRANCH  13  14
ENDBRANCH   1  13
TORSDOF 12
ENDMDL
MODEL 3
REMARK VINA RESULT:      -3.9      1.589      3.879
REMARK  12 active torsions:
REMARK  status: ('A' for Active; 'I' for Inactive)
REMARK    1  A    between atoms: P_4  and  O_5 
REMARK    2  A    between atoms: P_4  and  O_6 
REMARK    3  A    between atoms: P_4  and  O_7 
REMARK    4  A    between atoms: O_5  and  C_9 
REMARK    5  A    between atoms: O_6  and  C_10 
REMARK    6  A    between atoms: O_7  and  C_11 
REMARK    7  A    between atoms: C_9  and  C_12 
REMARK    8  A    between atoms: C_10  and  C_13 
REMARK    9  A    between atoms: C_11  and  C_14 
REMARK   10  A    between atoms: C_12  and  C_15 
REMARK   11  A    between atoms: C_13  and  C_16 
REMARK   12  A    between atoms: C_14  and  C_17 
ROOT
ATOM      1  P   UNL d   1      10.286  13.988  -0.018  0.00  0.00     0.477 P 
ATOM      2  O   UNL d   1      10.813  13.257   1.184  0.00  0.00    -0.227 OA
ENDROOT
BRANCH   1   3
ATOM      3  O   UNL d   1      10.045  15.573   0.217  0.00  0.00    -0.292 OA
BRANCH   3   4
ATOM      4  C   UNL d   1       9.906  16.085   1.532  0.00  0.00     0.181 C 
BRANCH   4   5
ATOM      5  C   UNL d   1       8.478  16.583   1.714  0.00  0.00     0.042 C 
BRANCH   5   6
ATOM      6  C   UNL d   1       7.720  15.866   2.823  0.00  0.00     0.116 C 
ATOM      7 CL   UNL d   1       8.698  14.590   3.583  0.00  0.00    -0.130 Cl
ENDBRANCH   5   6
ENDBRANCH   4   5
ENDBRANCH   3   4
ENDBRANCH   1   3
BRANCH   1   8
ATOM      8  O   UNL d   1       8.867  13.440  -0.573  0.00  0.00    -0.292 OA
BRANCH   8   9
ATOM      9  C   UNL d   1       7.903  12.991   0.364  0.00  0.00     0.181 C 
BRANCH   9  10
ATOM     10  C   UNL d   1       6.778  12.291  -0.389  0.00  0.00     0.042 C 
BRANCH  10  11
ATOM     11  C   UNL d   1       7.192  11.768  -1.758  0.00  0.00     0.116 C 
ATOM     12 CL   UNL d   1       6.615  10.109  -2.040  0.00  0.00    -0.130 Cl
ENDBRANCH  10  11
ENDBRANCH   9  10
ENDBRANCH   8   9
ENDBRANCH   1   8
BRANCH   1  13
ATOM     13  O   UNL d   1      11.241  13.913  -1.325  0.00  0.00    -0.292 OA
BRANCH  13  14
ATOM     14  C   UNL d   1      10.633  13.918  -2.606  0.00  0.00     0.181 C 
BRANCH  14  15
ATOM     15  C   UNL d   1      11.446  13.028  -3.536  0.00  0.00     0.042 C 
BRANCH  15  16
ATOM     16  C   UNL d   1      10.593  12.125  -4.418  0.00  0.00     0.116 C 
ATOM     17 CL   UNL d   1      11.578  10.953  -5.322  0.00  0.00    -0.130 Cl
ENDBRANCH  15  16
ENDBRANCH  14  15
ENDBRANCH  13  14
ENDBRANCH   1  13
TORSDOF 12
ENDMDL
MODEL 4
REMARK VINA RESULT:      -3.7      2.193      5.272
REMARK  12 active torsions:
REMARK  status: ('A' for Active; 'I' for Inactive)
REMARK    1  A    between atoms: P_4  and  O_5 
REMARK    2  A    between atoms: P_4  and  O_6 
REMARK    3  A    between atoms: P_4  and  O_7 
REMARK    4  A    between atoms: O_5  and  C_9 
REMARK    5  A    between atoms: O_6  and  C_10 
REMARK    6  A    between atoms: O_7  and  C_11 
REMARK    7  A    between atoms: C_9  and  C_12 
REMARK    8  A    between atoms: C_10  and  C_13 
REMARK    9  A    between atoms: C_11  and  C_14 
REMARK   10  A    between atoms: C_12  and  C_15 
REMARK   11  A    between atoms: C_13  and  C_16 
REMARK   12  A    between atoms: C_14  and  C_17 
ROOT
ATOM      1  P   UNL d   1       9.639  13.727   0.876  0.00  0.00     0.477 P 
ATOM      2  O   UNL d   1      10.908  12.984   1.183  0.00  0.00    -0.227 OA
ENDROOT
BRANCH   1   3
ATOM      3  O   UNL d   1       8.314  12.794   0.826  0.00  0.00    -0.292 OA
BRANCH   3   4
ATOM      4  C   UNL d   1       7.150  13.247   0.153  0.00  0.00     0.181 C 
BRANCH   4   5
ATOM      5  C   UNL d   1       6.464  12.050  -0.493  0.00  0.00     0.042 C 
BRANCH   5   6
ATOM      6  C   UNL d   1       7.115  11.605  -1.796  0.00  0.00     0.116 C 
ATOM      7 CL   UNL d   1       6.666   9.940  -2.231  0.00  0.00    -0.130 Cl
ENDBRANCH   5   6
ENDBRANCH   4   5
ENDBRANCH   3   4
ENDBRANCH   1   3
BRANCH   1   8
ATOM      8  O   UNL d   1       9.639  14.507  -0.543  0.00  0.00    -0.292 OA
BRANCH   8   9
ATOM      9  C   UNL d   1      10.718  14.288  -1.434  0.00  0.00     0.181 C 
BRANCH   9  10
ATOM     10  C   UNL d   1      10.172  13.699  -2.729  0.00  0.00     0.042 C 
BRANCH  10  11
ATOM     11  C   UNL d   1      11.207  13.607  -3.843  0.00  0.00     0.116 C 
ATOM     12 CL   UNL d   1      11.906  11.976  -3.970  0.00  0.00    -0.130 Cl
ENDBRANCH  10  11
ENDBRANCH   9  10
ENDBRANCH   8   9
ENDBRANCH   1   8
BRANCH   1  13
ATOM     13  O   UNL d   1       9.270  14.898   1.934  0.00  0.00    -0.292 OA
BRANCH  13  14
ATOM     14  C   UNL d   1       8.746  14.525   3.197  0.00  0.00     0.181 C 
BRANCH  14  15
ATOM     15  C   UNL d   1       8.965  15.673   4.175  0.00  0.00     0.042 C 
BRANCH  15  16
ATOM     16  C   UNL d   1       9.452  15.223   5.546  0.00  0.00     0.116 C 
ATOM     17 CL   UNL d   1       8.270  14.171   6.359  0.00  0.00    -0.130 Cl
ENDBRANCH  15  16
ENDBRANCH  14  15
ENDBRANCH  13  14
ENDBRANCH   1  13
TORSDOF 12
ENDMDL
MODEL 5
REMARK VINA RESULT:      -3.7      2.076      6.041
REMARK  12 active torsions:
REMARK  status: ('A' for Active; 'I' for Inactive)
REMARK    1  A    between atoms: P_4  and  O_5 
REMARK    2  A    between atoms: P_4  and  O_6 
REMARK    3  A    between atoms: P_4  and  O_7 
REMARK    4  A    between atoms: O_5  and  C_9 
REMARK    5  A    between atoms: O_6  and  C_10 
REMARK    6  A    between atoms: O_7  and  C_11 
REMARK    7  A    between atoms: C_9  and  C_12 
REMARK    8  A    between atoms: C_10  and  C_13 
REMARK    9  A    between atoms: C_11  and  C_14 
REMARK   10  A    between atoms: C_12  and  C_15 
REMARK   11  A    between atoms: C_13  and  C_16 
REMARK   12  A    between atoms: C_14  and  C_17 
ROOT
ATOM      1  P   UNL d   1      10.134  14.064   0.813  0.00  0.00     0.477 P 
ATOM      2  O   UNL d   1      11.212  13.127   1.280  0.00  0.00    -0.227 OA
ENDROOT
BRANCH   1   3
ATOM      3  O   UNL d   1      10.450  14.795  -0.599  0.00  0.00    -0.292 OA
BRANCH   3   4
ATOM      4  C   UNL d   1      10.072  14.179  -1.819  0.00  0.00     0.181 C 
BRANCH   4   5
ATOM      5  C   UNL d   1      11.327  13.660  -2.513  0.00  0.00     0.042 C 
BRANCH   5   6
ATOM      6  C   UNL d   1      11.063  13.083  -3.897  0.00  0.00     0.116 C 
ATOM      7 CL   UNL d   1      11.992  11.596  -4.188  0.00  0.00    -0.130 Cl
ENDBRANCH   5   6
ENDBRANCH   4   5
ENDBRANCH   3   4
ENDBRANCH   1   3
BRANCH   1   8
ATOM      8  O   UNL d   1       9.806  15.278   1.833  0.00  0.00    -0.292 OA
BRANCH   8   9
ATOM      9  C   UNL d   1      10.518  15.343   3.056  0.00  0.00     0.181 C 
BRANCH   9  10
ATOM     10  C   UNL d   1       9.560  15.782   4.157  0.00  0.00     0.042 C 
BRANCH  10  11
ATOM     11  C   UNL d   1       8.414  14.807   4.394  0.00  0.00     0.116 C 
ATOM     12 CL   UNL d   1       8.416  14.168   6.054  0.00  0.00    -0.130 Cl
ENDBRANCH  10  11
ENDBRANCH   9  10
ENDBRANCH   8   9
ENDBRANCH   1   8
BRANCH   1  13
ATOM     13  O   UNL d   1       8.686  13.371   0.595  0.00  0.00    -0.292 OA
BRANCH  13  14
ATOM     14  C   UNL d   1       7.524  14.160   0.790  0.00  0.00     0.181 C 
BRANCH  14  15
ATOM     15  C   UNL d   1       6.394  13.583  -0.052  0.00  0.00     0.042 C 
BRANCH  15  16
ATOM     16  C   UNL d   1       6.645  12.153  -0.513  0.00  0.00     0.116 C 
ATOM     17 CL   UNL d   1       7.063  12.075  -2.240  0.00  0.00    -0.130 Cl
ENDBRANCH  15  16
ENDBRANCH  14  15
ENDBRANCH  13  14
ENDBRANCH   1  13
TORSDOF 12
ENDMDL
MODEL 6
REMARK VINA RESULT:      -3.7      4.344      7.203
REMARK  12 active torsions:
REMARK  status: ('A' for Active; 'I' for Inactive)
REMARK    1  A    between atoms: P_4  and  O_5 
REMARK    2  A    between atoms: P_4  and  O_6 
REMARK    3  A    between atoms: P_4  and  O_7 
REMARK    4  A    between atoms: O_5  and  C_9 
REMARK    5  A    between atoms: O_6  and  C_10 
REMARK    6  A    between atoms: O_7  and  C_11 
REMARK    7  A    between atoms: C_9  and  C_12 
REMARK    8  A    between atoms: C_10  and  C_13 
REMARK    9  A    between atoms: C_11  and  C_14 
REMARK   10  A    between atoms: C_12  and  C_15 
REMARK   11  A    between atoms: C_13  and  C_16 
REMARK   12  A    between atoms: C_14  and  C_17 
ROOT
ATOM      1  P   UNL d   1       9.831  15.693   3.994  0.00  0.00     0.477 P 
ATOM      2  O   UNL d   1      11.209  15.672   3.396  0.00  0.00    -0.227 OA
ENDROOT
BRANCH   1   3
ATOM      3  O   UNL d   1       8.836  14.549   3.421  0.00  0.00    -0.292 OA
BRANCH   3   4
ATOM      4  C   UNL d   1       8.533  14.498   2.036  0.00  0.00     0.181 C 
BRANCH   4   5
ATOM      5  C   UNL d   1       9.100  13.206   1.460  0.00  0.00     0.042 C 
BRANCH   5   6
ATOM      6  C   UNL d   1      10.543  13.331   0.992  0.00  0.00     0.116 C 
ATOM      7 CL   UNL d   1      10.660  14.058  -0.627  0.00  0.00    -0.130 Cl
ENDBRANCH   5   6
ENDBRANCH   4   5
ENDBRANCH   3   4
ENDBRANCH   1   3
BRANCH   1   8
ATOM      8  O   UNL d   1       9.021  17.079   3.776  0.00  0.00    -0.292 OA
BRANCH   8   9
ATOM      9  C   UNL d   1       9.677  18.298   4.080  0.00  0.00     0.181 C 
BRANCH   9  10
ATOM     10  C   UNL d   1      10.158  18.932   2.780  0.00  0.00     0.042 C 
BRANCH  10  11
ATOM     11  C   UNL d   1       9.234  18.675   1.597  0.00  0.00     0.116 C 
ATOM     12 CL   UNL d   1       9.941  17.527   0.437  0.00  0.00    -0.130 Cl
ENDBRANCH  10  11
ENDBRANCH   9  10
ENDBRANCH   8   9
ENDBRANCH   1   8
BRANCH   1  13
ATOM     13  O   UNL d   1       9.789  15.497   5.602  0.00  0.00    -0.292 OA
BRANCH  13  14
ATOM     14  C   UNL d   1       8.599  15.001   6.191  0.00  0.00     0.181 C 
BRANCH  14  15
ATOM     15  C   UNL d   1       8.019  16.076   7.101  0.00  0.00     0.042 C 
BRANCH  15  16
ATOM     16  C   UNL d   1       6.622  16.528   6.698  0.00  0.00     0.116 C 
ATOM     17 CL   UNL d   1       6.095  15.782   5.172  0.00  0.00    -0.130 Cl
ENDBRANCH  15  16
ENDBRANCH  14  15
ENDBRANCH  13  14
ENDBRANCH   1  13
TORSDOF 12
ENDMDL
MODEL 7
REMARK VINA RESULT:      -3.6      4.634      7.907
REMARK  12 active torsions:
REMARK  status: ('A' for Active; 'I' for Inactive)
REMARK    1  A    between atoms: P_4  and  O_5 
REMARK    2  A    between atoms: P_4  and  O_6 
REMARK    3  A    between atoms: P_4  and  O_7 
REMARK    4  A    between atoms: O_5  and  C_9 
REMARK    5  A    between atoms: O_6  and  C_10 
REMARK    6  A    between atoms: O_7  and  C_11 
REMARK    7  A    between atoms: C_9  and  C_12 
REMARK    8  A    between atoms: C_10  and  C_13 
REMARK    9  A    between atoms: C_11  and  C_14 
REMARK   10  A    between atoms: C_12  and  C_15 
REMARK   11  A    between atoms: C_13  and  C_16 
REMARK   12  A    between atoms: C_14  and  C_17 
ROOT
ATOM      1  P   UNL d   1       9.965  16.216   5.017  0.00  0.00     0.477 P 
ATOM      2  O   UNL d   1      10.847  16.171   6.232  0.00  0.00    -0.227 OA
ENDROOT
BRANCH   1   3
ATOM      3  O   UNL d   1       8.980  17.502   4.954  0.00  0.00    -0.292 OA
BRANCH   3   4
ATOM      4  C   UNL d   1       8.662  18.094   3.705  0.00  0.00     0.181 C 
BRANCH   4   5
ATOM      5  C   UNL d   1       7.173  18.417   3.683  0.00  0.00     0.042 C 
BRANCH   5   6
ATOM      6  C   UNL d   1       6.406  17.674   2.597  0.00  0.00     0.116 C 
ATOM      7 CL   UNL d   1       6.565  15.910   2.755  0.00  0.00    -0.130 Cl
ENDBRANCH   5   6
ENDBRANCH   4   5
ENDBRANCH   3   4
ENDBRANCH   1   3
BRANCH   1   8
ATOM      8  O   UNL d   1       8.979  14.942   4.850  0.00  0.00    -0.292 OA
BRANCH   8   9
ATOM      9  C   UNL d   1       8.483  14.315   6.020  0.00  0.00     0.181 C 
BRANCH   9  10
ATOM     10  C   UNL d   1       7.298  15.120   6.541  0.00  0.00     0.042 C 
BRANCH  10  11
ATOM     11  C   UNL d   1       7.447  15.557   7.992  0.00  0.00     0.116 C 
ATOM     12 CL   UNL d   1       7.510  17.328   8.151  0.00  0.00    -0.130 Cl
ENDBRANCH  10  11
ENDBRANCH   9  10
ENDBRANCH   8   9
ENDBRANCH   1   8
BRANCH   1  13
ATOM     13  O   UNL d   1      10.761  16.247   3.606  0.00  0.00    -0.292 OA
BRANCH  13  14
ATOM     14  C   UNL d   1      10.808  15.060   2.832  0.00  0.00     0.181 C 
BRANCH  14  15
ATOM     15  C   UNL d   1       9.968  15.262   1.577  0.00  0.00     0.042 C 
BRANCH  15  16
ATOM     16  C   UNL d   1       9.956  14.053   0.650  0.00  0.00     0.116 C 
ATOM     17 CL   UNL d   1       8.589  12.968   0.989  0.00  0.00    -0.130 Cl
ENDBRANCH  15  16
ENDBRANCH  14  15
ENDBRANCH  13  14
ENDBRANCH   1  13
TORSDOF 12
ENDMDL
MODEL 8
REMARK VINA RESULT:      -3.5      1.765      5.750
REMARK  12 active torsions:
REMARK  status: ('A' for Active; 'I' for Inactive)
REMARK    1  A    between atoms: P_4  and  O_5 
REMARK    2  A    between atoms: P_4  and  O_6 
REMARK    3  A    between atoms: P_4  and  O_7 
REMARK    4  A    between atoms: O_5  and  C_9 
REMARK    5  A    between atoms: O_6  and  C_10 
REMARK    6  A    between atoms: O_7  and  C_11 
REMARK    7  A    between atoms: C_9  and  C_12 
REMARK    8  A    between atoms: C_10  and  C_13 
REMARK    9  A    between atoms: C_11  and  C_14 
REMARK   10  A    between atoms: C_12  and  C_15 
REMARK   11  A    between atoms: C_13  and  C_16 
REMARK   12  A    between atoms: C_14  and  C_17 
ROOT
ATOM      1  P   UNL d   1       9.720  14.985  -0.411  0.00  0.00     0.477 P 
ATOM      2  O   UNL d   1       9.666  16.239  -1.236  0.00  0.00    -0.227 OA
ENDROOT
BRANCH   1   3
ATOM      3  O   UNL d   1       8.269  14.356  -0.056  0.00  0.00    -0.292 OA
BRANCH   3   4
ATOM      4  C   UNL d   1       8.163  13.007   0.370  0.00  0.00     0.181 C 
BRANCH   4   5
ATOM      5  C   UNL d   1       6.880  12.414  -0.200  0.00  0.00     0.042 C 
BRANCH   5   6
ATOM      6  C   UNL d   1       7.022  11.917  -1.632  0.00  0.00     0.116 C 
ATOM      7 CL   UNL d   1       6.662  10.181  -1.774  0.00  0.00    -0.130 Cl
ENDBRANCH   5   6
ENDBRANCH   4   5
ENDBRANCH   3   4
ENDBRANCH   1   3
BRANCH   1   8
ATOM      8  O   UNL d   1      10.451  15.152   1.025  0.00  0.00    -0.292 OA
BRANCH   8   9
ATOM      9  C   UNL d   1       9.853  15.998   1.992  0.00  0.00     0.181 C 
BRANCH   9  10
ATOM     10  C   UNL d   1       9.898  15.300   3.346  0.00  0.00     0.042 C 
BRANCH  10  11
ATOM     11  C   UNL d   1       8.561  14.705   3.771  0.00  0.00     0.116 C 
ATOM     12 CL   UNL d   1       8.485  14.425   5.526  0.00  0.00    -0.130 Cl
ENDBRANCH  10  11
ENDBRANCH   9  10
ENDBRANCH   8   9
ENDBRANCH   1   8
BRANCH   1  13
ATOM     13  O   UNL d   1      10.535  13.762  -1.093  0.00  0.00    -0.292 OA
BRANCH  13  14
ATOM     14  C   UNL d   1      11.018  13.927  -2.416  0.00  0.00     0.181 C 
BRANCH  14  15
ATOM     15  C   UNL d   1       9.916  13.534  -3.391  0.00  0.00     0.042 C 
BRANCH  15  16
ATOM     16  C   UNL d   1      10.223  12.270  -4.182  0.00  0.00     0.116 C 
ATOM     17 CL   UNL d   1      11.927  11.784  -4.025  0.00  0.00    -0.130 Cl
ENDBRANCH  15  16
ENDBRANCH  14  15
ENDBRANCH  13  14
ENDBRANCH   1  13
TORSDOF 12
ENDMDL
MODEL 9
REMARK VINA RESULT:      -3.4      2.465      2.736
REMARK  12 active torsions:
REMARK  status: ('A' for Active; 'I' for Inactive)
REMARK    1  A    between atoms: P_4  and  O_5 
REMARK    2  A    between atoms: P_4  and  O_6 
REMARK    3  A    between atoms: P_4  and  O_7 
REMARK    4  A    between atoms: O_5  and  C_9 
REMARK    5  A    between atoms: O_6  and  C_10 
REMARK    6  A    between atoms: O_7  and  C_11 
REMARK    7  A    between atoms: C_9  and  C_12 
REMARK    8  A    between atoms: C_10  and  C_13 
REMARK    9  A    between atoms: C_11  and  C_14 
REMARK   10  A    between atoms: C_12  and  C_15 
REMARK   11  A    between atoms: C_13  and  C_16 
REMARK   12  A    between atoms: C_14  and  C_17 
ROOT
ATOM      1  P   UNL d   1       9.091  14.674   0.858  0.00  0.00     0.477 P 
ATOM      2  O   UNL d   1       8.137  15.823   0.692  0.00  0.00    -0.227 OA
ENDROOT
BRANCH   1   3
ATOM      3  O   UNL d   1       9.584  14.432   2.383  0.00  0.00    -0.292 OA
BRANCH   3   4
ATOM      4  C   UNL d   1       8.711  14.708   3.466  0.00  0.00     0.181 C 
BRANCH   4   5
ATOM      5  C   UNL d   1       9.505  15.398   4.569  0.00  0.00     0.042 C 
BRANCH   5   6
ATOM      6  C   UNL d   1       8.927  15.184   5.961  0.00  0.00     0.116 C 
ATOM      7 CL   UNL d   1       8.167  13.585   6.129  0.00  0.00    -0.130 Cl
ENDBRANCH   5   6
ENDBRANCH   4   5
ENDBRANCH   3   4
ENDBRANCH   1   3
BRANCH   1   8
ATOM      8  O   UNL d   1      10.461  14.805   0.005  0.00  0.00    -0.292 OA
BRANCH   8   9
ATOM      9  C   UNL d   1      10.590  14.048  -1.185  0.00  0.00     0.181 C 
BRANCH   9  10
ATOM     10  C   UNL d   1      10.005  14.851  -2.341  0.00  0.00     0.042 C 
BRANCH  10  11
ATOM     11  C   UNL d   1      10.347  14.284  -3.713  0.00  0.00     0.116 C 
ATOM     12 CL   UNL d   1      11.612  13.037  -3.622  0.00  0.00    -0.130 Cl
ENDBRANCH  10  11
ENDBRANCH   9  10
ENDBRANCH   8   9
ENDBRANCH   1   8
BRANCH   1  13
ATOM     13  O   UNL d   1       8.506  13.238   0.389  0.00  0.00    -0.292 OA
BRANCH  13  14
ATOM     14  C   UNL d   1       7.123  13.134   0.100  0.00  0.00     0.181 C 
BRANCH  14  15
ATOM     15  C   UNL d   1       6.900  11.922  -0.796  0.00  0.00     0.042 C 
BRANCH  15  16
ATOM     16  C   UNL d   1       7.395  12.118  -2.223  0.00  0.00     0.116 C 
ATOM     17 CL   UNL d   1       6.621  13.513  -3.009  0.00  0.00    -0.130 Cl
ENDBRANCH  15  16
ENDBRANCH  14  15
ENDBRANCH  13  14
ENDBRANCH   1  13
TORSDOF 12
ENDMDL
