MODEL 1
REMARK VINA RESULT:      -5.7      0.000      0.000
REMARK  8 active torsions:
REMARK  status: ('A' for Active; 'I' for Inactive)
REMARK    1  A    between atoms: O_4  and  C_14 
REMARK    2  A    between atoms: O_4  and  C_18 
REMARK    3  A    between atoms: O_5  and  C_17 
REMARK    4  A    between atoms: O_7  and  C_23 
REMARK    5  A    between atoms: N_8  and  CA_10 
REMARK    6  A    between atoms: C_9  and  CA_10 
REMARK    7  A    between atoms: C_9  and  C_11 
REMARK    8  A    between atoms: CA_10  and  C_17 
ROOT
ATOM      1  I   UNL d   1       7.053  13.248  -0.002  0.00  0.00    -0.042 I 
ATOM      2  I   UNL d   1      10.244  18.442   0.303  0.00  0.00    -0.042 I 
ATOM      3  C   UNL d   1       9.036  15.429   3.159  0.00  0.00    -0.053 A 
ATOM      4  C   UNL d   1       9.582  16.550   2.553  0.00  0.00     0.028 A 
ATOM      5  C   UNL d   1       8.319  14.493   2.433  0.00  0.00     0.028 A 
ATOM      6  C   UNL d   1       8.684  15.806   0.437  0.00  0.00     0.109 A 
ATOM      7  C   UNL d   1       8.141  14.683   1.062  0.00  0.00     0.042 A 
ATOM      8  C   UNL d   1       9.404  16.739   1.183  0.00  0.00     0.042 A 
ENDROOT
BRANCH   6   9
ATOM      9  O   UNL d   1       8.511  15.991  -0.905  0.00  0.00    -0.308 OA
BRANCH   9  10
ATOM     10  C   UNL d   1       9.297  15.241  -1.760  0.00  0.00     0.077 A 
ATOM     11  C   UNL d   1       8.953  15.158  -3.098  0.00  0.00     0.058 A 
ATOM     12  C   UNL d   1       9.746  14.402  -3.960  0.00  0.00     0.042 A 
ATOM     13  I   UNL d   1       9.206  14.292  -5.976  0.00  0.00    -0.042 I 
ATOM     14  C   UNL d   1      10.872  13.738  -3.470  0.00  0.00     0.082 A 
ATOM     15  C   UNL d   1      11.204  13.833  -2.119  0.00  0.00     0.040 A 
ATOM     16  C   UNL d   1      10.410  14.590  -1.257  0.00  0.00     0.040 A 
BRANCH  14  17
ATOM     17  O   UNL d   1      11.674  12.989  -4.279  0.00  0.00    -0.359 OA
ATOM     18  H   UNL d   1      12.555  12.911  -3.875  0.00  0.00     0.217 HD
ENDBRANCH  14  17
ENDBRANCH   9  10
ENDBRANCH   6   9
BRANCH   3  19
ATOM     19  C   UNL d   1       9.229  15.224   4.643  0.00  0.00     0.085 C 
BRANCH  19  20
ATOM     20  CA  UNL d   1       7.918  15.334   5.437  0.00  0.00     0.318 C 
BRANCH  20  21
ATOM     21  N   UNL d   1       7.893  16.593   6.179  0.00  0.00     0.093 N 
ATOM     22  H1  UNL d   1       8.253  16.443   7.120  0.00  0.00     0.314 HD
ATOM     23  H2  UNL d   1       6.929  16.904   6.298  0.00  0.00     0.314 HD
ENDBRANCH  20  21
BRANCH  20  24
ATOM     24  C   UNL d   1       7.776  14.222   6.462  0.00  0.00     0.174 C 
ATOM     25  OXT UNL d   1       8.071  13.050   6.268  0.00  0.00    -0.648 OA
BRANCH  24  26
ATOM     26  O   UNL d   1       7.310  14.676   7.655  0.00  0.00    -0.775 OA
ATOM     27  H   UNL d   1       7.134  15.641   7.635  0.00  0.00     0.167 HD
ENDBRANCH  24  26
ENDBRANCH  20  24
ENDBRANCH  19  20
ENDBRANCH   3  19
TORSDOF 8
ENDMDL
MODEL 2
REMARK VINA RESULT:      -5.6      2.240      2.701
REMARK  8 active torsions:
REMARK  status: ('A' for Active; 'I' for Inactive)
REMARK    1  A    between atoms: O_4  and  C_14 
REMARK    2  A    between atoms: O_4  and  C_18 
REMARK    3  A    between atoms: O_5  and  C_17 
REMARK    4  A    between atoms: O_7  and  C_23 
REMARK    5  A    between atoms: N_8  and  CA_10 
REMARK    6  A    between atoms: C_9  and  CA_10 
REMARK    7  A    between atoms: C_9  and  C_11 
REMARK    8  A    between atoms: CA_10  and  C_17 
ROOT
ATOM      1  I   UNL d   1       6.201  17.907   0.351  0.00  0.00    -0.042 I 
ATOM      2  I   UNL d   1      10.695  14.044   1.811  0.00  0.00    -0.042 I 
ATOM      3  C   UNL d   1       7.243  15.631   3.875  0.00  0.00    -0.053 A 
ATOM      4  C   UNL d   1       8.400  14.943   3.545  0.00  0.00     0.028 A 
ATOM      5  C   UNL d   1       6.621  16.472   2.967  0.00  0.00     0.028 A 
ATOM      6  C   UNL d   1       8.333  15.944   1.347  0.00  0.00     0.109 A 
ATOM      7  C   UNL d   1       7.170  16.630   1.695  0.00  0.00     0.042 A 
ATOM      8  C   UNL d   1       8.948  15.100   2.272  0.00  0.00     0.042 A 
ENDROOT
BRANCH   6   9
ATOM      9  O   UNL d   1       8.871  16.097   0.101  0.00  0.00    -0.308 OA
BRANCH   9  10
ATOM     10  C   UNL d   1       8.700  15.062  -0.800  0.00  0.00     0.077 A 
ATOM     11  C   UNL d   1       9.687  14.813  -1.739  0.00  0.00     0.058 A 
ATOM     12  C   UNL d   1       9.514  13.769  -2.647  0.00  0.00     0.042 A 
ATOM     13  I   UNL d   1      11.017  13.412  -4.055  0.00  0.00    -0.042 I 
ATOM     14  C   UNL d   1       8.357  12.990  -2.602  0.00  0.00     0.082 A 
ATOM     15  C   UNL d   1       7.374  13.255  -1.650  0.00  0.00     0.040 A 
ATOM     16  C   UNL d   1       7.547  14.300  -0.742  0.00  0.00     0.040 A 
BRANCH  14  17
ATOM     17  O   UNL d   1       8.150  11.960  -3.472  0.00  0.00    -0.359 OA
ATOM     18  H   UNL d   1       8.755  12.051  -4.227  0.00  0.00     0.217 HD
ENDBRANCH  14  17
ENDBRANCH   9  10
ENDBRANCH   6   9
BRANCH   3  19
ATOM     19  C   UNL d   1       6.649  15.460   5.253  0.00  0.00     0.085 C 
BRANCH  19  20
ATOM     20  CA  UNL d   1       7.591  14.732   6.224  0.00  0.00     0.318 C 
BRANCH  20  21
ATOM     21  N   UNL d   1       7.068  13.399   6.515  0.00  0.00     0.093 N 
ATOM     22  H1  UNL d   1       7.828  12.721   6.494  0.00  0.00     0.314 HD
ATOM     23  H2  UNL d   1       6.422  13.113   5.779  0.00  0.00     0.314 HD
ENDBRANCH  20  21
BRANCH  20  24
ATOM     24  C   UNL d   1       7.708  15.454   7.555  0.00  0.00     0.174 C 
ATOM     25  OXT UNL d   1       8.304  16.509   7.729  0.00  0.00    -0.648 OA
BRANCH  24  26
ATOM     26  O   UNL d   1       7.039  14.814   8.550  0.00  0.00    -0.775 OA
ATOM     27  H   UNL d   1       6.091  15.065   8.572  0.00  0.00     0.167 HD
ENDBRANCH  24  26
ENDBRANCH  20  24
ENDBRANCH  19  20
ENDBRANCH   3  19
TORSDOF 8
ENDMDL
MODEL 3
REMARK VINA RESULT:      -5.5      2.599      3.925
REMARK  8 active torsions:
REMARK  status: ('A' for Active; 'I' for Inactive)
REMARK    1  A    between atoms: O_4  and  C_14 
REMARK    2  A    between atoms: O_4  and  C_18 
REMARK    3  A    between atoms: O_5  and  C_17 
REMARK    4  A    between atoms: O_7  and  C_23 
REMARK    5  A    between atoms: N_8  and  CA_10 
REMARK    6  A    between atoms: C_9  and  CA_10 
REMARK    7  A    between atoms: C_9  and  C_11 
REMARK    8  A    between atoms: CA_10  and  C_17 
ROOT
ATOM      1  I   UNL d   1       8.463  16.978  -2.093  0.00  0.00    -0.042 I 
ATOM      2  I   UNL d   1       6.348  11.290  -1.442  0.00  0.00    -0.042 I 
ATOM      3  C   UNL d   1       8.782  13.935   0.960  0.00  0.00    -0.053 A 
ATOM      4  C   UNL d   1       8.059  12.852   0.485  0.00  0.00     0.028 A 
ATOM      5  C   UNL d   1       8.896  15.105   0.227  0.00  0.00     0.028 A 
ATOM      6  C   UNL d   1       7.537  14.115  -1.508  0.00  0.00     0.109 A 
ATOM      7  C   UNL d   1       8.269  15.195  -1.016  0.00  0.00     0.042 A 
ATOM      8  C   UNL d   1       7.432  12.944  -0.758  0.00  0.00     0.042 A 
ENDROOT
BRANCH   6   9
ATOM      9  O   UNL d   1       6.923  14.204  -2.725  0.00  0.00    -0.308 OA
BRANCH   9  10
ATOM     10  C   UNL d   1       7.698  13.985  -3.850  0.00  0.00     0.077 A 
ATOM     11  C   UNL d   1       8.801  13.154  -3.760  0.00  0.00     0.058 A 
ATOM     12  C   UNL d   1       9.581  12.934  -4.894  0.00  0.00     0.042 A 
ATOM     13  I   UNL d   1      11.242  11.676  -4.734  0.00  0.00    -0.042 I 
ATOM     14  C   UNL d   1       9.247  13.549  -6.101  0.00  0.00     0.082 A 
ATOM     15  C   UNL d   1       8.131  14.383  -6.174  0.00  0.00     0.040 A 
ATOM     16  C   UNL d   1       7.351  14.602  -5.038  0.00  0.00     0.040 A 
BRANCH  14  17
ATOM     17  O   UNL d   1       9.984  13.360  -7.233  0.00  0.00    -0.359 OA
ATOM     18  H   UNL d   1       9.398  13.067  -7.952  0.00  0.00     0.217 HD
ENDBRANCH  14  17
ENDBRANCH   9  10
ENDBRANCH   6   9
BRANCH   3  19
ATOM     19  C   UNL d   1       9.461  13.836   2.306  0.00  0.00     0.085 C 
BRANCH  19  20
ATOM     20  CA  UNL d   1      10.141  15.147   2.730  0.00  0.00     0.318 C 
BRANCH  20  21
ATOM     21  N   UNL d   1      11.592  14.985   2.694  0.00  0.00     0.093 N 
ATOM     22  H1  UNL d   1      11.823  14.016   2.481  0.00  0.00     0.314 HD
ATOM     23  H2  UNL d   1      11.983  15.165   3.620  0.00  0.00     0.314 HD
ENDBRANCH  20  21
BRANCH  20  24
ATOM     24  C   UNL d   1       9.782  15.544   4.151  0.00  0.00     0.174 C 
ATOM     25  OXT UNL d   1      10.539  16.103   4.934  0.00  0.00    -0.648 OA
BRANCH  24  26
ATOM     26  O   UNL d   1       8.495  15.240   4.463  0.00  0.00    -0.775 OA
ATOM     27  H   UNL d   1       7.927  16.039   4.487  0.00  0.00     0.167 HD
ENDBRANCH  24  26
ENDBRANCH  20  24
ENDBRANCH  19  20
ENDBRANCH   3  19
TORSDOF 8
ENDMDL
MODEL 4
REMARK VINA RESULT:      -5.5      3.480      8.144
REMARK  8 active torsions:
REMARK  status: ('A' for Active; 'I' for Inactive)
REMARK    1  A    between atoms: O_4  and  C_14 
REMARK    2  A    between atoms: O_4  and  C_18 
REMARK    3  A    between atoms: O_5  and  C_17 
REMARK    4  A    between atoms: O_7  and  C_23 
REMARK    5  A    between atoms: N_8  and  CA_10 
REMARK    6  A    between atoms: C_9  and  CA_10 
REMARK    7  A    between atoms: C_9  and  C_11 
REMARK    8  A    between atoms: CA_10  and  C_17 
ROOT
ATOM      1  I   UNL d   1       6.356  11.541  -1.484  0.00  0.00    -0.042 I 
ATOM      2  I   UNL d   1       8.891  17.093  -1.447  0.00  0.00    -0.042 I 
ATOM      3  C   UNL d   1       9.510  13.470  -3.723  0.00  0.00    -0.053 A 
ATOM      4  C   UNL d   1       9.594  14.757  -3.216  0.00  0.00     0.028 A 
ATOM      5  C   UNL d   1       8.590  12.559  -3.231  0.00  0.00     0.028 A 
ATOM      6  C   UNL d   1       7.804  14.236  -1.680  0.00  0.00     0.109 A 
ATOM      7  C   UNL d   1       7.731  12.944  -2.202  0.00  0.00     0.042 A 
ATOM      8  C   UNL d   1       8.735  15.142  -2.187  0.00  0.00     0.042 A 
ENDROOT
BRANCH   6   9
ATOM      9  O   UNL d   1       6.962  14.614  -0.672  0.00  0.00    -0.308 OA
BRANCH   9  10
ATOM     10  C   UNL d   1       7.481  14.664   0.608  0.00  0.00     0.077 A 
ATOM     11  C   UNL d   1       6.964  15.576   1.512  0.00  0.00     0.058 A 
ATOM     12  C   UNL d   1       7.487  15.626   2.804  0.00  0.00     0.042 A 
ATOM     13  I   UNL d   1       6.692  17.013   4.150  0.00  0.00    -0.042 I 
ATOM     14  C   UNL d   1       8.520  14.763   3.172  0.00  0.00     0.082 A 
ATOM     15  C   UNL d   1       9.028  13.850   2.248  0.00  0.00     0.040 A 
ATOM     16  C   UNL d   1       8.504  13.801   0.957  0.00  0.00     0.040 A 
BRANCH  14  17
ATOM     17  O   UNL d   1       9.060  14.780   4.424  0.00  0.00    -0.359 OA
ATOM     18  H   UNL d   1       8.417  14.414   5.055  0.00  0.00     0.217 HD
ENDBRANCH  14  17
ENDBRANCH   9  10
ENDBRANCH   6   9
BRANCH   3  19
ATOM     19  C   UNL d   1      10.440  13.053  -4.838  0.00  0.00     0.085 C 
BRANCH  19  20
ATOM     20  CA  UNL d   1      10.817  11.564  -4.777  0.00  0.00     0.318 C 
BRANCH  20  21
ATOM     21  N   UNL d   1      12.098  11.407  -4.091  0.00  0.00     0.093 N 
ATOM     22  H1  UNL d   1      12.098  10.536  -3.563  0.00  0.00     0.314 HD
ATOM     23  H2  UNL d   1      12.214  12.150  -3.401  0.00  0.00     0.314 HD
ENDBRANCH  20  21
BRANCH  20  24
ATOM     24  C   UNL d   1      10.987  10.960  -6.159  0.00  0.00     0.174 C 
ATOM     25  OXT UNL d   1      10.532  11.436  -7.192  0.00  0.00    -0.648 OA
BRANCH  24  26
ATOM     26  O   UNL d   1      11.742   9.830  -6.141  0.00  0.00    -0.775 OA
ATOM     27  H   UNL d   1      11.647   9.342  -5.295  0.00  0.00     0.167 HD
ENDBRANCH  24  26
ENDBRANCH  20  24
ENDBRANCH  19  20
ENDBRANCH   3  19
TORSDOF 8
ENDMDL
MODEL 5
REMARK VINA RESULT:      -5.5      2.416      3.045
REMARK  8 active torsions:
REMARK  status: ('A' for Active; 'I' for Inactive)
REMARK    1  A    between atoms: O_4  and  C_14 
REMARK    2  A    between atoms: O_4  and  C_18 
REMARK    3  A    between atoms: O_5  and  C_17 
REMARK    4  A    between atoms: O_7  and  C_23 
REMARK    5  A    between atoms: N_8  and  CA_10 
REMARK    6  A    between atoms: C_9  and  CA_10 
REMARK    7  A    between atoms: C_9  and  C_11 
REMARK    8  A    between atoms: CA_10  and  C_17 
ROOT
ATOM      1  I   UNL d   1       6.009  17.736   0.287  0.00  0.00    -0.042 I 
ATOM      2  I   UNL d   1      10.628  14.058   1.830  0.00  0.00    -0.042 I 
ATOM      3  C   UNL d   1       7.203  15.690   3.902  0.00  0.00    -0.053 A 
ATOM      4  C   UNL d   1       8.365  15.008   3.578  0.00  0.00     0.028 A 
ATOM      5  C   UNL d   1       6.536  16.464   2.967  0.00  0.00     0.028 A 
ATOM      6  C   UNL d   1       8.212  15.878   1.329  0.00  0.00     0.109 A 
ATOM      7  C   UNL d   1       7.044  16.558   1.672  0.00  0.00     0.042 A 
ATOM      8  C   UNL d   1       8.873  15.103   2.282  0.00  0.00     0.042 A 
ENDROOT
BRANCH   6   9
ATOM      9  O   UNL d   1       8.710  15.970   0.060  0.00  0.00    -0.308 OA
BRANCH   9  10
ATOM     10  C   UNL d   1       8.487  14.904  -0.792  0.00  0.00     0.077 A 
ATOM     11  C   UNL d   1       7.451  14.027  -0.522  0.00  0.00     0.058 A 
ATOM     12  C   UNL d   1       7.227  12.953  -1.381  0.00  0.00     0.042 A 
ATOM     13  I   UNL d   1       5.657  11.641  -0.952  0.00  0.00    -0.042 I 
ATOM     14  C   UNL d   1       8.043  12.771  -2.499  0.00  0.00     0.082 A 
ATOM     15  C   UNL d   1       9.081  13.665  -2.756  0.00  0.00     0.040 A 
ATOM     16  C   UNL d   1       9.305  14.740  -1.896  0.00  0.00     0.040 A 
BRANCH  14  17
ATOM     17  O   UNL d   1       7.857  11.734  -3.364  0.00  0.00    -0.359 OA
ATOM     18  H   UNL d   1       7.453  12.068  -4.184  0.00  0.00     0.217 HD
ENDBRANCH  14  17
ENDBRANCH   9  10
ENDBRANCH   6   9
BRANCH   3  19
ATOM     19  C   UNL d   1       6.653  15.587   5.305  0.00  0.00     0.085 C 
BRANCH  19  20
ATOM     20  CA  UNL d   1       7.584  14.820   6.258  0.00  0.00     0.318 C 
BRANCH  20  21
ATOM     21  N   UNL d   1       7.047  13.484   6.505  0.00  0.00     0.093 N 
ATOM     22  H1  UNL d   1       6.029  13.517   6.492  0.00  0.00     0.314 HD
ATOM     23  H2  UNL d   1       7.302  13.177   7.444  0.00  0.00     0.314 HD
ENDBRANCH  20  21
BRANCH  20  24
ATOM     24  C   UNL d   1       7.702  15.499   7.611  0.00  0.00     0.174 C 
ATOM     25  OXT UNL d   1       8.288  16.555   7.816  0.00  0.00    -0.648 OA
BRANCH  24  26
ATOM     26  O   UNL d   1       7.046  14.820   8.589  0.00  0.00    -0.775 OA
ATOM     27  H   UNL d   1       6.264  15.315   8.914  0.00  0.00     0.167 HD
ENDBRANCH  24  26
ENDBRANCH  20  24
ENDBRANCH  19  20
ENDBRANCH   3  19
TORSDOF 8
ENDMDL
MODEL 6
REMARK VINA RESULT:      -5.4      4.078      8.030
REMARK  8 active torsions:
REMARK  status: ('A' for Active; 'I' for Inactive)
REMARK    1  A    between atoms: O_4  and  C_14 
REMARK    2  A    between atoms: O_4  and  C_18 
REMARK    3  A    between atoms: O_5  and  C_17 
REMARK    4  A    between atoms: O_7  and  C_23 
REMARK    5  A    between atoms: N_8  and  CA_10 
REMARK    6  A    between atoms: C_9  and  CA_10 
REMARK    7  A    between atoms: C_9  and  C_11 
REMARK    8  A    between atoms: CA_10  and  C_17 
ROOT
ATOM      1  I   UNL d   1       8.889  17.006  -1.979  0.00  0.00    -0.042 I 
ATOM      2  I   UNL d   1       6.532  11.484  -0.881  0.00  0.00    -0.042 I 
ATOM      3  C   UNL d   1       8.382  13.390  -4.292  0.00  0.00    -0.053 A 
ATOM      4  C   UNL d   1       7.767  12.486  -3.441  0.00  0.00     0.028 A 
ATOM      5  C   UNL d   1       8.700  14.672  -3.875  0.00  0.00     0.028 A 
ATOM      6  C   UNL d   1       7.774  14.165  -1.703  0.00  0.00     0.109 A 
ATOM      7  C   UNL d   1       8.393  15.062  -2.572  0.00  0.00     0.042 A 
ATOM      8  C   UNL d   1       7.461  12.877  -2.137  0.00  0.00     0.042 A 
ENDROOT
BRANCH   6   9
ATOM      9  O   UNL d   1       7.474  14.546  -0.426  0.00  0.00    -0.308 OA
BRANCH   9  10
ATOM     10  C   UNL d   1       8.524  14.674   0.466  0.00  0.00     0.077 A 
ATOM     11  C   UNL d   1       8.477  15.668   1.428  0.00  0.00     0.058 A 
ATOM     12  C   UNL d   1       9.536  15.796   2.326  0.00  0.00     0.042 A 
ATOM     13  I   UNL d   1       9.443  17.305   3.769  0.00  0.00    -0.042 I 
ATOM     14  C   UNL d   1      10.626  14.928   2.248  0.00  0.00     0.082 A 
ATOM     15  C   UNL d   1      10.656  13.932   1.273  0.00  0.00     0.040 A 
ATOM     16  C   UNL d   1       9.596  13.804   0.375  0.00  0.00     0.040 A 
BRANCH  14  17
ATOM     17  O   UNL d   1      11.681  15.020   3.108  0.00  0.00    -0.359 OA
ATOM     18  H   UNL d   1      12.243  14.232   3.011  0.00  0.00     0.217 HD
ENDBRANCH  14  17
ENDBRANCH   9  10
ENDBRANCH   6   9
BRANCH   3  19
ATOM     19  C   UNL d   1       8.714  12.967  -5.704  0.00  0.00     0.085 C 
BRANCH  19  20
ATOM     20  CA  UNL d   1      10.226  12.847  -5.952  0.00  0.00     0.318 C 
BRANCH  20  21
ATOM     21  N   UNL d   1      10.466  12.157  -7.217  0.00  0.00     0.093 N 
ATOM     22  H1  UNL d   1       9.724  11.480  -7.384  0.00  0.00     0.314 HD
ATOM     23  H2  UNL d   1      11.328  11.614  -7.156  0.00  0.00     0.314 HD
ENDBRANCH  20  21
BRANCH  20  24
ATOM     24  C   UNL d   1      10.919  12.033  -4.873  0.00  0.00     0.174 C 
ATOM     25  OXT UNL d   1      11.646  12.497  -4.005  0.00  0.00    -0.648 OA
BRANCH  24  26
ATOM     26  O   UNL d   1      10.615  10.711  -4.949  0.00  0.00    -0.775 OA
ATOM     27  H   UNL d   1      10.885  10.228  -4.139  0.00  0.00     0.167 HD
ENDBRANCH  24  26
ENDBRANCH  20  24
ENDBRANCH  19  20
ENDBRANCH   3  19
TORSDOF 8
ENDMDL
MODEL 7
REMARK VINA RESULT:      -5.4     18.156     19.908
REMARK  8 active torsions:
REMARK  status: ('A' for Active; 'I' for Inactive)
REMARK    1  A    between atoms: O_4  and  C_14 
REMARK    2  A    between atoms: O_4  and  C_18 
REMARK    3  A    between atoms: O_5  and  C_17 
REMARK    4  A    between atoms: O_7  and  C_23 
REMARK    5  A    between atoms: N_8  and  CA_10 
REMARK    6  A    between atoms: C_9  and  CA_10 
REMARK    7  A    between atoms: C_9  and  C_11 
REMARK    8  A    between atoms: CA_10  and  C_17 
ROOT
ATOM      1  I   UNL d   1       1.059  -4.657   4.679  0.00  0.00    -0.042 I 
ATOM      2  I   UNL d   1       5.845  -3.940   0.960  0.00  0.00    -0.042 I 
ATOM      3  C   UNL d   1       2.819  -1.312   2.582  0.00  0.00    -0.053 A 
ATOM      4  C   UNL d   1       3.907  -1.832   1.898  0.00  0.00     0.028 A 
ATOM      5  C   UNL d   1       2.012  -2.115   3.371  0.00  0.00     0.028 A 
ATOM      6  C   UNL d   1       3.391  -4.014   2.796  0.00  0.00     0.109 A 
ATOM      7  C   UNL d   1       2.300  -3.476   3.478  0.00  0.00     0.042 A 
ATOM      8  C   UNL d   1       4.194  -3.192   2.006  0.00  0.00     0.042 A 
ENDROOT
BRANCH   6   9
ATOM      9  O   UNL d   1       3.673  -5.347   2.903  0.00  0.00    -0.308 OA
BRANCH   9  10
ATOM     10  C   UNL d   1       4.592  -5.731   3.862  0.00  0.00     0.077 A 
ATOM     11  C   UNL d   1       5.107  -7.015   3.830  0.00  0.00     0.058 A 
ATOM     12  C   UNL d   1       6.034  -7.401   4.797  0.00  0.00     0.042 A 
ATOM     13  I   UNL d   1       6.797  -9.345   4.729  0.00  0.00    -0.042 I 
ATOM     14  C   UNL d   1       6.432  -6.496   5.783  0.00  0.00     0.082 A 
ATOM     15  C   UNL d   1       5.903  -5.206   5.799  0.00  0.00     0.040 A 
ATOM     16  C   UNL d   1       4.976  -4.821   4.831  0.00  0.00     0.040 A 
BRANCH  14  17
ATOM     17  O   UNL d   1       7.335  -6.834   6.746  0.00  0.00    -0.359 OA
ATOM     18  H   UNL d   1       7.232  -6.238   7.507  0.00  0.00     0.217 HD
ENDBRANCH  14  17
ENDBRANCH   9  10
ENDBRANCH   6   9
BRANCH   3  19
ATOM     19  C   UNL d   1       2.509   0.161   2.465  0.00  0.00     0.085 C 
BRANCH  19  20
ATOM     20  CA  UNL d   1       3.494   1.044   3.247  0.00  0.00     0.318 C 
BRANCH  20  21
ATOM     21  N   UNL d   1       2.799   1.704   4.349  0.00  0.00     0.093 N 
ATOM     22  H1  UNL d   1       3.304   2.547   4.617  0.00  0.00     0.314 HD
ATOM     23  H2  UNL d   1       2.807   1.103   5.173  0.00  0.00     0.314 HD
ENDBRANCH  20  21
BRANCH  20  24
ATOM     24  C   UNL d   1       4.085   2.144   2.383  0.00  0.00     0.174 C 
ATOM     25  OXT UNL d   1       3.596   2.551   1.336  0.00  0.00    -0.648 OA
BRANCH  24  26
ATOM     26  O   UNL d   1       5.217   2.671   2.920  0.00  0.00    -0.775 OA
ATOM     27  H   UNL d   1       5.354   2.375   3.845  0.00  0.00     0.167 HD
ENDBRANCH  24  26
ENDBRANCH  20  24
ENDBRANCH  19  20
ENDBRANCH   3  19
TORSDOF 8
ENDMDL
MODEL 8
REMARK VINA RESULT:      -5.2     18.326     20.145
REMARK  8 active torsions:
REMARK  status: ('A' for Active; 'I' for Inactive)
REMARK    1  A    between atoms: O_4  and  C_14 
REMARK    2  A    between atoms: O_4  and  C_18 
REMARK    3  A    between atoms: O_5  and  C_17 
REMARK    4  A    between atoms: O_7  and  C_23 
REMARK    5  A    between atoms: N_8  and  CA_10 
REMARK    6  A    between atoms: C_9  and  CA_10 
REMARK    7  A    between atoms: C_9  and  C_11 
REMARK    8  A    between atoms: CA_10  and  C_17 
ROOT
ATOM      1  I   UNL d   1       5.735  -3.884   1.129  0.00  0.00    -0.042 I 
ATOM      2  I   UNL d   1       1.102  -5.019   4.936  0.00  0.00    -0.042 I 
ATOM      3  C   UNL d   1       2.624  -1.496   2.946  0.00  0.00    -0.053 A 
ATOM      4  C   UNL d   1       1.882  -2.375   3.719  0.00  0.00     0.028 A 
ATOM      5  C   UNL d   1       3.717  -1.926   2.211  0.00  0.00     0.028 A 
ATOM      6  C   UNL d   1       3.344  -4.170   3.025  0.00  0.00     0.109 A 
ATOM      7  C   UNL d   1       4.079  -3.272   2.252  0.00  0.00     0.042 A 
ATOM      8  C   UNL d   1       2.245  -3.721   3.759  0.00  0.00     0.042 A 
ENDROOT
BRANCH   6   9
ATOM      9  O   UNL d   1       3.698  -5.489   3.064  0.00  0.00    -0.308 OA
BRANCH   9  10
ATOM     10  C   UNL d   1       4.655  -5.866   3.988  0.00  0.00     0.077 A 
ATOM     11  C   UNL d   1       5.207  -7.133   3.911  0.00  0.00     0.058 A 
ATOM     12  C   UNL d   1       6.172  -7.513   4.844  0.00  0.00     0.042 A 
ATOM     13  I   UNL d   1       6.991  -9.431   4.708  0.00  0.00    -0.042 I 
ATOM     14  C   UNL d   1       6.569  -6.620   5.840  0.00  0.00     0.082 A 
ATOM     15  C   UNL d   1       6.002  -5.347   5.902  0.00  0.00     0.040 A 
ATOM     16  C   UNL d   1       5.037  -4.968   4.969  0.00  0.00     0.040 A 
BRANCH  14  17
ATOM     17  O   UNL d   1       7.509  -6.952   6.770  0.00  0.00    -0.359 OA
ATOM     18  H   UNL d   1       7.814  -6.146   7.220  0.00  0.00     0.217 HD
ENDBRANCH  14  17
ENDBRANCH   9  10
ENDBRANCH   6   9
BRANCH   3  19
ATOM     19  C   UNL d   1       2.231  -0.038   2.902  0.00  0.00     0.085 C 
BRANCH  19  20
ATOM     20  CA  UNL d   1       3.420   0.909   3.127  0.00  0.00     0.318 C 
BRANCH  20  21
ATOM     21  N   UNL d   1       3.150   1.779   4.269  0.00  0.00     0.093 N 
ATOM     22  H1  UNL d   1       4.030   2.089   4.678  0.00  0.00     0.314 HD
ATOM     23  H2  UNL d   1       2.674   1.251   5.001  0.00  0.00     0.314 HD
ENDBRANCH  20  21
BRANCH  20  24
ATOM     24  C   UNL d   1       3.660   1.817   1.934  0.00  0.00     0.174 C 
ATOM     25  OXT UNL d   1       3.735   1.440   0.771  0.00  0.00    -0.648 OA
BRANCH  24  26
ATOM     26  O   UNL d   1       3.749   3.125   2.290  0.00  0.00    -0.775 OA
ATOM     27  H   UNL d   1       4.059   3.231   3.215  0.00  0.00     0.167 HD
ENDBRANCH  24  26
ENDBRANCH  20  24
ENDBRANCH  19  20
ENDBRANCH   3  19
TORSDOF 8
ENDMDL
MODEL 9
REMARK VINA RESULT:      -5.1      2.988      4.321
REMARK  8 active torsions:
REMARK  status: ('A' for Active; 'I' for Inactive)
REMARK    1  A    between atoms: O_4  and  C_14 
REMARK    2  A    between atoms: O_4  and  C_18 
REMARK    3  A    between atoms: O_5  and  C_17 
REMARK    4  A    between atoms: O_7  and  C_23 
REMARK    5  A    between atoms: N_8  and  CA_10 
REMARK    6  A    between atoms: C_9  and  CA_10 
REMARK    7  A    between atoms: C_9  and  C_11 
REMARK    8  A    between atoms: CA_10  and  C_17 
ROOT
ATOM      1  I   UNL d   1       7.665  17.380  -2.015  0.00  0.00    -0.042 I 
ATOM      2  I   UNL d   1      11.446  12.930  -3.789  0.00  0.00    -0.042 I 
ATOM      3  C   UNL d   1      10.091  14.443   0.027  0.00  0.00    -0.053 A 
ATOM      4  C   UNL d   1      10.721  13.720  -0.973  0.00  0.00     0.028 A 
ATOM      5  C   UNL d   1       9.224  15.482  -0.270  0.00  0.00     0.028 A 
ATOM      6  C   UNL d   1       9.607  15.088  -2.623  0.00  0.00     0.109 A 
ATOM      7  C   UNL d   1       8.981  15.806  -1.605  0.00  0.00     0.042 A 
ATOM      8  C   UNL d   1      10.477  14.045  -2.307  0.00  0.00     0.042 A 
ENDROOT
BRANCH   6   9
ATOM      9  O   UNL d   1       9.368  15.406  -3.930  0.00  0.00    -0.308 OA
BRANCH   9  10
ATOM     10  C   UNL d   1       8.557  14.554  -4.656  0.00  0.00     0.077 A 
ATOM     11  C   UNL d   1       7.561  13.848  -4.003  0.00  0.00     0.058 A 
ATOM     12  C   UNL d   1       6.743  12.989  -4.736  0.00  0.00     0.042 A 
ATOM     13  I   UNL d   1       5.247  11.933  -3.728  0.00  0.00    -0.042 I 
ATOM     14  C   UNL d   1       6.933  12.849  -6.112  0.00  0.00     0.082 A 
ATOM     15  C   UNL d   1       7.941  13.568  -6.753  0.00  0.00     0.040 A 
ATOM     16  C   UNL d   1       8.759  14.427  -6.019  0.00  0.00     0.040 A 
BRANCH  14  17
ATOM     17  O   UNL d   1       6.155  12.020  -6.864  0.00  0.00    -0.359 OA
ATOM     18  H   UNL d   1       6.432  12.076  -7.794  0.00  0.00     0.217 HD
ENDBRANCH  14  17
ENDBRANCH   9  10
ENDBRANCH   6   9
BRANCH   3  19
ATOM     19  C   UNL d   1      10.355  14.091   1.472  0.00  0.00     0.085 C 
BRANCH  19  20
ATOM     20  CA  UNL d   1      10.417  15.324   2.387  0.00  0.00     0.318 C 
BRANCH  20  21
ATOM     21  N   UNL d   1      11.780  15.506   2.880  0.00  0.00     0.093 N 
ATOM     22  H1  UNL d   1      12.444  15.178   2.180  0.00  0.00     0.314 HD
ATOM     23  H2  UNL d   1      11.931  14.920   3.702  0.00  0.00     0.314 HD
ENDBRANCH  20  21
BRANCH  20  24
ATOM     24  C   UNL d   1       9.528  15.175   3.609  0.00  0.00     0.174 C 
ATOM     25  OXT UNL d   1       8.349  14.846   3.580  0.00  0.00    -0.648 OA
BRANCH  24  26
ATOM     26  O   UNL d   1      10.197  15.414   4.767  0.00  0.00    -0.775 OA
ATOM     27  H   UNL d   1      11.140  15.631   4.605  0.00  0.00     0.167 HD
ENDBRANCH  24  26
ENDBRANCH  20  24
ENDBRANCH  19  20
ENDBRANCH   3  19
TORSDOF 8
ENDMDL
