MODEL 1
REMARK VINA RESULT:      -8.3      0.000      0.000
REMARK  6 active torsions:
REMARK  status: ('A' for Active; 'I' for Inactive)
REMARK    1  A    between atoms: N_8  and  C_18 
REMARK    2  A    between atoms: N_9  and  N_11 
REMARK       I    between atoms: N_9  and  C_22 
REMARK    3  A    between atoms: N_10  and  C_25 
REMARK       I    between atoms: N_11  and  C_27 
REMARK    4  A    between atoms: N_12  and  C_26 
REMARK       I    between atoms: N_12  and  C_27 
REMARK    5  A    between atoms: C_19  and  C_22 
REMARK    6  A    between atoms: C_28  and  C_33 
ROOT
ATOM      1  O   UNL d   1       8.691  13.246  -1.681  0.00  0.00    -0.267 OA
ATOM      2  N   UNL d   1      10.627  13.932  -2.765  0.00  0.00    -0.263 N 
ATOM      3  C   UNL d   1       9.560  14.084  -1.903  0.00  0.00     0.260 C 
ATOM      4  H   UNL d   1      11.334  14.641  -2.930  0.00  0.00     0.190 HD
ENDROOT
BRANCH   2   5
ATOM      5  N   UNL d   1      10.762  12.752  -3.452  0.00  0.00    -0.248 N 
ATOM      6  C   UNL d   1      10.717  12.766  -4.846  0.00  0.00     0.339 C 
ATOM      7  O   UNL d   1      10.560  13.792  -5.504  0.00  0.00    -0.245 OA
ATOM      8  N   UNL d   1      10.875  11.471  -5.347  0.00  0.00    -0.308 N 
ATOM      9  H   UNL d   1      10.995  10.730  -4.661  0.00  0.00     0.170 HD
ATOM     10  H   UNL d   1      10.897  11.910  -2.904  0.00  0.00     0.192 HD
BRANCH   8  11
ATOM     11  C   UNL d   1      10.888  11.058  -6.700  0.00  0.00     0.037 A 
ATOM     12  C   UNL d   1      10.111  11.730  -7.642  0.00  0.00     0.045 A 
ATOM     13  C   UNL d   1      10.125  11.322  -8.976  0.00  0.00     0.050 A 
ATOM     14  C   UNL d   1      10.916  10.242  -9.367  0.00  0.00     0.016 A 
ATOM     15  C   UNL d   1      11.695   9.571  -8.424  0.00  0.00     0.003 A 
ATOM     16  C   UNL d   1      11.681   9.979  -7.091  0.00  0.00     0.029 A 
BRANCH  13  17
ATOM     17  C   UNL d   1       9.292  12.040  -9.984  0.00  0.00     0.417 C 
ATOM     18  F   UNL d   1       8.152  11.371 -10.330  0.00  0.00    -0.166 F 
ATOM     19  F   UNL d   1       9.941  12.271 -11.164  0.00  0.00    -0.166 F 
ATOM     20  F   UNL d   1       8.880  13.266  -9.548  0.00  0.00    -0.166 F 
ENDBRANCH  13  17
ENDBRANCH   8  11
ENDBRANCH   2   5
BRANCH   3  21
ATOM     21  C   UNL d   1       9.575  15.417  -1.249  0.00  0.00     0.078 C 
ATOM     22  C   UNL d   1       9.834  15.525   0.062  0.00  0.00    -0.071 C 
ATOM     23  C   UNL d   1       9.866  16.842   0.786  0.00  0.00     0.054 C 
ATOM     24  C   UNL d   1      10.099  14.338   0.945  0.00  0.00     0.054 C 
ATOM     25  C   UNL d   1       8.916  16.819   1.984  0.00  0.00     0.127 C 
ATOM     26  N   UNL d   1       9.170  15.639   2.830  0.00  0.00    -0.380 N 
ATOM     27  C   UNL d   1       9.154  14.335   2.149  0.00  0.00     0.127 C 
BRANCH  26  28
ATOM     28  C   UNL d   1       8.796  15.718   4.176  0.00  0.00     0.030 A 
ATOM     29  C   UNL d   1       8.676  14.554   4.936  0.00  0.00     0.032 A 
ATOM     30  C   UNL d   1       8.304  14.632   6.277  0.00  0.00     0.038 A 
ATOM     31  C   UNL d   1       8.052  15.875   6.860  0.00  0.00     0.103 A 
ATOM     32  C   UNL d   1       8.172  17.038   6.100  0.00  0.00     0.038 A 
ATOM     33  C   UNL d   1       8.545  16.960   4.758  0.00  0.00     0.032 A 
BRANCH  31  34
ATOM     34  N   UNL d   1       7.673  15.955   8.226  0.00  0.00    -0.116 N 
ATOM     35  O   UNL d   1       7.851  17.032   8.845  0.00  0.00    -0.532 OA
ATOM     36  O   UNL d   1       7.169  14.947   8.777  0.00  0.00    -0.532 OA
ENDBRANCH  31  34
ENDBRANCH  26  28
ENDBRANCH   3  21
TORSDOF 6
ENDMDL
MODEL 2
REMARK VINA RESULT:      -8.1      1.497      2.139
REMARK  6 active torsions:
REMARK  status: ('A' for Active; 'I' for Inactive)
REMARK    1  A    between atoms: N_8  and  C_18 
REMARK    2  A    between atoms: N_9  and  N_11 
REMARK       I    between atoms: N_9  and  C_22 
REMARK    3  A    between atoms: N_10  and  C_25 
REMARK       I    between atoms: N_11  and  C_27 
REMARK    4  A    between atoms: N_12  and  C_26 
REMARK       I    between atoms: N_12  and  C_27 
REMARK    5  A    between atoms: C_19  and  C_22 
REMARK    6  A    between atoms: C_28  and  C_33 
ROOT
ATOM      1  O   UNL d   1       8.638  14.965  -1.545  0.00  0.00    -0.267 OA
ATOM      2  N   UNL d   1      10.197  13.445  -2.352  0.00  0.00    -0.263 N 
ATOM      3  C   UNL d   1       9.706  14.369  -1.452  0.00  0.00     0.260 C 
ATOM      4  H   UNL d   1      11.084  12.964  -2.251  0.00  0.00     0.190 HD
ENDROOT
BRANCH   2   5
ATOM      5  N   UNL d   1       9.450  13.140  -3.463  0.00  0.00    -0.248 N 
ATOM      6  C   UNL d   1      10.033  13.244  -4.725  0.00  0.00     0.339 C 
ATOM      7  O   UNL d   1      11.196  13.600  -4.902  0.00  0.00    -0.245 OA
ATOM      8  N   UNL d   1       9.111  12.890  -5.714  0.00  0.00    -0.308 N 
ATOM      9  H   UNL d   1       8.185  12.617  -5.394  0.00  0.00     0.170 HD
ATOM     10  H   UNL d   1       8.494  12.842  -3.310  0.00  0.00     0.192 HD
BRANCH   8  11
ATOM     11  C   UNL d   1       9.305  12.862  -7.114  0.00  0.00     0.037 A 
ATOM     12  C   UNL d   1       9.787  11.707  -7.730  0.00  0.00     0.045 A 
ATOM     13  C   UNL d   1       9.978  11.681  -9.111  0.00  0.00     0.050 A 
ATOM     14  C   UNL d   1       9.688  12.810  -9.877  0.00  0.00     0.016 A 
ATOM     15  C   UNL d   1       9.205  13.965  -9.262  0.00  0.00     0.003 A 
ATOM     16  C   UNL d   1       9.014  13.991  -7.881  0.00  0.00     0.029 A 
BRANCH  13  17
ATOM     17  C   UNL d   1      10.494  10.446  -9.769  0.00  0.00     0.417 C 
ATOM     18  F   UNL d   1       9.601   9.412  -9.770  0.00  0.00    -0.166 F 
ATOM     19  F   UNL d   1      11.620   9.943  -9.181  0.00  0.00    -0.166 F 
ATOM     20  F   UNL d   1      10.824  10.646 -11.078  0.00  0.00    -0.166 F 
ENDBRANCH  13  17
ENDBRANCH   8  11
ENDBRANCH   2   5
BRANCH   3  21
ATOM     21  C   UNL d   1      10.643  14.572  -0.318  0.00  0.00     0.078 C 
ATOM     22  C   UNL d   1      10.267  14.268   0.933  0.00  0.00    -0.071 C 
ATOM     23  C   UNL d   1      11.165  14.449   2.125  0.00  0.00     0.054 C 
ATOM     24  C   UNL d   1       8.904  13.736   1.272  0.00  0.00     0.054 C 
ATOM     25  C   UNL d   1      10.480  15.311   3.187  0.00  0.00     0.127 C 
ATOM     26  N   UNL d   1       9.135  14.793   3.494  0.00  0.00    -0.380 N 
ATOM     27  C   UNL d   1       8.236  14.598   2.347  0.00  0.00     0.127 C 
BRANCH  26  28
ATOM     28  C   UNL d   1       8.596  15.102   4.747  0.00  0.00     0.030 A 
ATOM     29  C   UNL d   1       8.232  14.078   5.622  0.00  0.00     0.032 A 
ATOM     30  C   UNL d   1       7.695  14.385   6.872  0.00  0.00     0.038 A 
ATOM     31  C   UNL d   1       7.522  15.718   7.247  0.00  0.00     0.103 A 
ATOM     32  C   UNL d   1       7.885  16.742   6.374  0.00  0.00     0.038 A 
ATOM     33  C   UNL d   1       8.423  16.434   5.124  0.00  0.00     0.032 A 
BRANCH  31  34
ATOM     34  N   UNL d   1       6.974  16.032   8.519  0.00  0.00    -0.116 N 
ATOM     35  O   UNL d   1       7.116  15.215   9.461  0.00  0.00    -0.532 OA
ATOM     36  O   UNL d   1       6.362  17.117   8.667  0.00  0.00    -0.532 OA
ENDBRANCH  31  34
ENDBRANCH  26  28
ENDBRANCH   3  21
TORSDOF 6
ENDMDL
MODEL 3
REMARK VINA RESULT:      -7.9      6.014     13.277
REMARK  6 active torsions:
REMARK  status: ('A' for Active; 'I' for Inactive)
REMARK    1  A    between atoms: N_8  and  C_18 
REMARK    2  A    between atoms: N_9  and  N_11 
REMARK       I    between atoms: N_9  and  C_22 
REMARK    3  A    between atoms: N_10  and  C_25 
REMARK       I    between atoms: N_11  and  C_27 
REMARK    4  A    between atoms: N_12  and  C_26 
REMARK       I    between atoms: N_12  and  C_27 
REMARK    5  A    between atoms: C_19  and  C_22 
REMARK    6  A    between atoms: C_28  and  C_33 
ROOT
ATOM      1  O   UNL d   1       8.216  13.330  -0.211  0.00  0.00    -0.267 OA
ATOM      2  N   UNL d   1       9.001  15.439   0.363  0.00  0.00    -0.263 N 
ATOM      3  C   UNL d   1       9.093  14.189  -0.215  0.00  0.00     0.260 C 
ATOM      4  H   UNL d   1       9.741  16.134   0.344  0.00  0.00     0.190 HD
ENDROOT
BRANCH   2   5
ATOM      5  N   UNL d   1       7.841  15.789   1.008  0.00  0.00    -0.248 N 
ATOM      6  C   UNL d   1       7.851  15.939   2.394  0.00  0.00     0.339 C 
ATOM      7  O   UNL d   1       8.856  15.774   3.082  0.00  0.00    -0.245 OA
ATOM      8  N   UNL d   1       6.579  16.296   2.850  0.00  0.00    -0.308 N 
ATOM      9  H   UNL d   1       5.854  16.392   2.144  0.00  0.00     0.170 HD
ATOM     10  H   UNL d   1       7.017  15.929   0.435  0.00  0.00     0.192 HD
BRANCH   8  11
ATOM     11  C   UNL d   1       6.170  16.542   4.182  0.00  0.00     0.037 A 
ATOM     12  C   UNL d   1       7.060  16.336   5.235  0.00  0.00     0.045 A 
ATOM     13  C   UNL d   1       6.656  16.578   6.548  0.00  0.00     0.050 A 
ATOM     14  C   UNL d   1       5.362  17.027   6.807  0.00  0.00     0.016 A 
ATOM     15  C   UNL d   1       4.471  17.235   5.754  0.00  0.00     0.003 A 
ATOM     16  C   UNL d   1       4.875  16.992   4.441  0.00  0.00     0.029 A 
BRANCH  13  17
ATOM     17  C   UNL d   1       7.609  16.357   7.674  0.00  0.00     0.417 C 
ATOM     18  F   UNL d   1       8.885  16.090   7.267  0.00  0.00    -0.166 F 
ATOM     19  F   UNL d   1       7.267  15.309   8.482  0.00  0.00    -0.166 F 
ATOM     20  F   UNL d   1       7.706  17.438   8.501  0.00  0.00    -0.166 F 
ENDBRANCH  13  17
ENDBRANCH   8  11
ENDBRANCH   2   5
BRANCH   3  21
ATOM     21  C   UNL d   1      10.412  13.987  -0.865  0.00  0.00     0.078 C 
ATOM     22  C   UNL d   1      10.504  13.915  -2.201  0.00  0.00    -0.071 C 
ATOM     23  C   UNL d   1      11.807  13.712  -2.923  0.00  0.00     0.054 C 
ATOM     24  C   UNL d   1       9.312  14.009  -3.110  0.00  0.00     0.054 C 
ATOM     25  C   UNL d   1      11.722  12.502  -3.854  0.00  0.00     0.127 C 
ATOM     26  N   UNL d   1      10.537  12.594  -4.724  0.00  0.00    -0.380 N 
ATOM     27  C   UNL d   1       9.247  12.800  -4.048  0.00  0.00     0.127 C 
BRANCH  26  28
ATOM     28  C   UNL d   1      10.574  11.901  -5.939  0.00  0.00     0.030 A 
ATOM     29  C   UNL d   1      11.343  10.743  -6.059  0.00  0.00     0.032 A 
ATOM     30  C   UNL d   1      11.380  10.052  -7.269  0.00  0.00     0.038 A 
ATOM     31  C   UNL d   1      10.649  10.520  -8.362  0.00  0.00     0.103 A 
ATOM     32  C   UNL d   1       9.881  11.678  -8.243  0.00  0.00     0.038 A 
ATOM     33  C   UNL d   1       9.844  12.368  -7.032  0.00  0.00     0.032 A 
BRANCH  31  34
ATOM     34  N   UNL d   1      10.687   9.817  -9.595  0.00  0.00    -0.116 N 
ATOM     35  O   UNL d   1      11.431   8.812  -9.700  0.00  0.00    -0.532 OA
ATOM     36  O   UNL d   1       9.977  10.221 -10.548  0.00  0.00    -0.532 OA
ENDBRANCH  31  34
ENDBRANCH  26  28
ENDBRANCH   3  21
TORSDOF 6
ENDMDL
MODEL 4
REMARK VINA RESULT:      -7.8      1.550      1.996
REMARK  6 active torsions:
REMARK  status: ('A' for Active; 'I' for Inactive)
REMARK    1  A    between atoms: N_8  and  C_18 
REMARK    2  A    between atoms: N_9  and  N_11 
REMARK       I    between atoms: N_9  and  C_22 
REMARK    3  A    between atoms: N_10  and  C_25 
REMARK       I    between atoms: N_11  and  C_27 
REMARK    4  A    between atoms: N_12  and  C_26 
REMARK       I    between atoms: N_12  and  C_27 
REMARK    5  A    between atoms: C_19  and  C_22 
REMARK    6  A    between atoms: C_28  and  C_33 
ROOT
ATOM      1  O   UNL d   1       8.101  17.158  -1.984  0.00  0.00    -0.267 OA
ATOM      2  N   UNL d   1       9.871  15.674  -1.736  0.00  0.00    -0.263 N 
ATOM      3  C   UNL d   1       9.141  16.807  -1.435  0.00  0.00     0.260 C 
ATOM      4  H   UNL d   1      10.728  15.404  -1.266  0.00  0.00     0.190 HD
ENDROOT
BRANCH   2   5
ATOM      5  N   UNL d   1       9.423  14.842  -2.732  0.00  0.00    -0.248 N 
ATOM      6  C   UNL d   1      10.334  14.016  -3.390  0.00  0.00     0.339 C 
ATOM      7  O   UNL d   1      11.533  13.990  -3.123  0.00  0.00    -0.245 OA
ATOM      8  N   UNL d   1       9.679  13.252  -4.360  0.00  0.00    -0.308 N 
ATOM      9  H   UNL d   1       8.677  13.397  -4.451  0.00  0.00     0.170 HD
ATOM     10  H   UNL d   1       8.432  14.864  -2.943  0.00  0.00     0.192 HD
BRANCH   8  11
ATOM     11  C   UNL d   1      10.241  12.297  -5.239  0.00  0.00     0.037 A 
ATOM     12  C   UNL d   1       9.913  12.318  -6.594  0.00  0.00     0.045 A 
ATOM     13  C   UNL d   1      10.467  11.375  -7.460  0.00  0.00     0.050 A 
ATOM     14  C   UNL d   1      11.350  10.413  -6.971  0.00  0.00     0.016 A 
ATOM     15  C   UNL d   1      11.679  10.392  -5.616  0.00  0.00     0.003 A 
ATOM     16  C   UNL d   1      11.124  11.335  -4.750  0.00  0.00     0.029 A 
BRANCH  13  17
ATOM     17  C   UNL d   1      10.116  11.397  -8.909  0.00  0.00     0.417 C 
ATOM     18  F   UNL d   1       8.772  11.339  -9.148  0.00  0.00    -0.166 F 
ATOM     19  F   UNL d   1      10.647  10.355  -9.617  0.00  0.00    -0.166 F 
ATOM     20  F   UNL d   1      10.552  12.526  -9.540  0.00  0.00    -0.166 F 
ENDBRANCH  13  17
ENDBRANCH   8  11
ENDBRANCH   2   5
BRANCH   3  21
ATOM     21  C   UNL d   1       9.772  17.583  -0.337  0.00  0.00     0.078 C 
ATOM     22  C   UNL d   1       9.795  17.092   0.910  0.00  0.00    -0.071 C 
ATOM     23  C   UNL d   1      10.417  17.824   2.067  0.00  0.00     0.054 C 
ATOM     24  C   UNL d   1       9.184  15.771   1.283  0.00  0.00     0.054 C 
ATOM     25  C   UNL d   1       9.409  17.980   3.208  0.00  0.00     0.127 C 
ATOM     26  N   UNL d   1       8.800  16.682   3.548  0.00  0.00    -0.380 N 
ATOM     27  C   UNL d   1       8.190  15.938   2.435  0.00  0.00     0.127 C 
BRANCH  26  28
ATOM     28  C   UNL d   1       8.288  16.530   4.841  0.00  0.00     0.030 A 
ATOM     29  C   UNL d   1       8.475  15.331   5.529  0.00  0.00     0.032 A 
ATOM     30  C   UNL d   1       7.966  15.179   6.818  0.00  0.00     0.038 A 
ATOM     31  C   UNL d   1       7.268  16.227   7.420  0.00  0.00     0.103 A 
ATOM     32  C   UNL d   1       7.080  17.425   6.733  0.00  0.00     0.038 A 
ATOM     33  C   UNL d   1       7.590  17.577   5.443  0.00  0.00     0.032 A 
BRANCH  31  34
ATOM     34  N   UNL d   1       6.748  16.072   8.732  0.00  0.00    -0.116 N 
ATOM     35  O   UNL d   1       5.849  16.853   9.126  0.00  0.00    -0.532 OA
ATOM     36  O   UNL d   1       7.203  15.159   9.464  0.00  0.00    -0.532 OA
ENDBRANCH  31  34
ENDBRANCH  26  28
ENDBRANCH   3  21
TORSDOF 6
ENDMDL
MODEL 5
REMARK VINA RESULT:      -7.4      3.666      5.655
REMARK  6 active torsions:
REMARK  status: ('A' for Active; 'I' for Inactive)
REMARK    1  A    between atoms: N_8  and  C_18 
REMARK    2  A    between atoms: N_9  and  N_11 
REMARK       I    between atoms: N_9  and  C_22 
REMARK    3  A    between atoms: N_10  and  C_25 
REMARK       I    between atoms: N_11  and  C_27 
REMARK    4  A    between atoms: N_12  and  C_26 
REMARK       I    between atoms: N_12  and  C_27 
REMARK    5  A    between atoms: C_19  and  C_22 
REMARK    6  A    between atoms: C_28  and  C_33 
ROOT
ATOM      1  O   UNL d   1      10.552  16.963   3.012  0.00  0.00    -0.267 OA
ATOM      2  N   UNL d   1      10.286  14.753   2.350  0.00  0.00    -0.263 N 
ATOM      3  C   UNL d   1      10.274  15.793   3.257  0.00  0.00     0.260 C 
ATOM      4  H   UNL d   1      10.050  13.793   2.577  0.00  0.00     0.190 HD
ENDROOT
BRANCH   2   5
ATOM      5  N   UNL d   1      10.634  15.013   1.048  0.00  0.00    -0.248 N 
ATOM      6  C   UNL d   1      10.033  14.281   0.023  0.00  0.00     0.339 C 
ATOM      7  O   UNL d   1       9.196  13.404   0.224  0.00  0.00    -0.245 OA
ATOM      8  N   UNL d   1      10.521  14.698  -1.218  0.00  0.00    -0.308 N 
ATOM      9  H   UNL d   1      11.215  15.442  -1.206  0.00  0.00     0.170 HD
ATOM     10  H   UNL d   1      11.321  15.741   0.888  0.00  0.00     0.192 HD
BRANCH   8  11
ATOM     11  C   UNL d   1      10.169  14.212  -2.498  0.00  0.00     0.037 A 
ATOM     12  C   UNL d   1      10.865  13.139  -3.054  0.00  0.00     0.045 A 
ATOM     13  C   UNL d   1      10.517  12.661  -4.317  0.00  0.00     0.050 A 
ATOM     14  C   UNL d   1       9.472  13.254  -5.024  0.00  0.00     0.016 A 
ATOM     15  C   UNL d   1       8.774  14.327  -4.468  0.00  0.00     0.003 A 
ATOM     16  C   UNL d   1       9.123  14.806  -3.205  0.00  0.00     0.029 A 
BRANCH  13  17
ATOM     17  C   UNL d   1      11.262  11.514  -4.911  0.00  0.00     0.417 C 
ATOM     18  F   UNL d   1      10.663  10.304  -4.703  0.00  0.00    -0.166 F 
ATOM     19  F   UNL d   1      12.530  11.372  -4.420  0.00  0.00    -0.166 F 
ATOM     20  F   UNL d   1      11.406  11.624  -6.264  0.00  0.00    -0.166 F 
ENDBRANCH  13  17
ENDBRANCH   8  11
ENDBRANCH   2   5
BRANCH   3  21
ATOM     21  C   UNL d   1       9.874  15.329   4.610  0.00  0.00     0.078 C 
ATOM     22  C   UNL d   1       8.600  15.437   5.013  0.00  0.00    -0.071 C 
ATOM     23  C   UNL d   1       8.128  14.988   6.367  0.00  0.00     0.054 C 
ATOM     24  C   UNL d   1       7.519  16.039   4.160  0.00  0.00     0.054 C 
ATOM     25  C   UNL d   1       7.417  16.130   7.095  0.00  0.00     0.127 C 
ATOM     26  N   UNL d   1       6.376  16.727   6.240  0.00  0.00    -0.380 N 
ATOM     27  C   UNL d   1       6.805  17.170   4.905  0.00  0.00     0.127 C 
BRANCH  26  28
ATOM     28  C   UNL d   1       5.318  17.384   6.877  0.00  0.00     0.030 A 
ATOM     29  C   UNL d   1       4.169  17.715   6.159  0.00  0.00     0.032 A 
ATOM     30  C   UNL d   1       3.114  18.370   6.794  0.00  0.00     0.038 A 
ATOM     31  C   UNL d   1       3.208  18.695   8.148  0.00  0.00     0.103 A 
ATOM     32  C   UNL d   1       4.357  18.365   8.865  0.00  0.00     0.038 A 
ATOM     33  C   UNL d   1       5.412  17.709   8.230  0.00  0.00     0.032 A 
BRANCH  31  34
ATOM     34  N   UNL d   1       2.135  19.363   8.794  0.00  0.00    -0.116 N 
ATOM     35  O   UNL d   1       2.143  19.459  10.045  0.00  0.00    -0.532 OA
ATOM     36  O   UNL d   1       1.205  19.837   8.097  0.00  0.00    -0.532 OA
ENDBRANCH  31  34
ENDBRANCH  26  28
ENDBRANCH   3  21
TORSDOF 6
ENDMDL
MODEL 6
REMARK VINA RESULT:      -7.3      2.543      3.489
REMARK  6 active torsions:
REMARK  status: ('A' for Active; 'I' for Inactive)
REMARK    1  A    between atoms: N_8  and  C_18 
REMARK    2  A    between atoms: N_9  and  N_11 
REMARK       I    between atoms: N_9  and  C_22 
REMARK    3  A    between atoms: N_10  and  C_25 
REMARK       I    between atoms: N_11  and  C_27 
REMARK    4  A    between atoms: N_12  and  C_26 
REMARK       I    between atoms: N_12  and  C_27 
REMARK    5  A    between atoms: C_19  and  C_22 
REMARK    6  A    between atoms: C_28  and  C_33 
ROOT
ATOM      1  O   UNL d   1       9.272  12.330  -3.913  0.00  0.00    -0.267 OA
ATOM      2  N   UNL d   1      10.012  13.634  -5.687  0.00  0.00    -0.263 N 
ATOM      3  C   UNL d   1       9.426  13.420  -4.455  0.00  0.00     0.260 C 
ATOM      4  H   UNL d   1      10.130  14.547  -6.113  0.00  0.00     0.190 HD
ENDROOT
BRANCH   2   5
ATOM      5  N   UNL d   1      10.476  12.555  -6.397  0.00  0.00    -0.248 N 
ATOM      6  C   UNL d   1       9.977  12.317  -7.677  0.00  0.00     0.339 C 
ATOM      7  O   UNL d   1       9.133  13.031  -8.214  0.00  0.00    -0.245 OA
ATOM      8  N   UNL d   1      10.576  11.179  -8.225  0.00  0.00    -0.308 N 
ATOM      9  H   UNL d   1      11.261  10.702  -7.643  0.00  0.00     0.170 HD
ATOM     10  H   UNL d   1      11.176  11.973  -5.951  0.00  0.00     0.192 HD
BRANCH   8  11
ATOM     11  C   UNL d   1      10.348  10.603  -9.496  0.00  0.00     0.037 A 
ATOM     12  C   UNL d   1       9.877   9.295  -9.595  0.00  0.00     0.045 A 
ATOM     13  C   UNL d   1       9.652   8.728 -10.850  0.00  0.00     0.050 A 
ATOM     14  C   UNL d   1       9.898   9.469 -12.005  0.00  0.00     0.016 A 
ATOM     15  C   UNL d   1      10.369  10.778 -11.906  0.00  0.00     0.003 A 
ATOM     16  C   UNL d   1      10.594  11.345 -10.652  0.00  0.00     0.029 A 
BRANCH  13  17
ATOM     17  C   UNL d   1       9.149   7.327 -10.955  0.00  0.00     0.417 C 
ATOM     18  F   UNL d   1       9.575   6.514  -9.944  0.00  0.00    -0.166 F 
ATOM     19  F   UNL d   1       9.529   6.695 -12.105  0.00  0.00    -0.166 F 
ATOM     20  F   UNL d   1       7.786   7.256 -10.934  0.00  0.00    -0.166 F 
ENDBRANCH  13  17
ENDBRANCH   8  11
ENDBRANCH   2   5
BRANCH   3  21
ATOM     21  C   UNL d   1       8.987  14.696  -3.835  0.00  0.00     0.078 C 
ATOM     22  C   UNL d   1       9.501  15.088  -2.660  0.00  0.00    -0.071 C 
ATOM     23  C   UNL d   1       9.101  16.366  -1.977  0.00  0.00     0.054 C 
ATOM     24  C   UNL d   1      10.513  14.281  -1.897  0.00  0.00     0.054 C 
ATOM     25  C   UNL d   1       8.627  16.087  -0.550  0.00  0.00     0.127 C 
ATOM     26  N   UNL d   1       9.617  15.275   0.180  0.00  0.00    -0.380 N 
ATOM     27  C   UNL d   1      10.034  14.022  -0.466  0.00  0.00     0.127 C 
BRANCH  26  28
ATOM     28  C   UNL d   1       9.619  15.364   1.577  0.00  0.00     0.030 A 
ATOM     29  C   UNL d   1      10.439  16.296   2.215  0.00  0.00     0.032 A 
ATOM     30  C   UNL d   1      10.442  16.386   3.606  0.00  0.00     0.038 A 
ATOM     31  C   UNL d   1       9.624  15.543   4.361  0.00  0.00     0.103 A 
ATOM     32  C   UNL d   1       8.806  14.612   3.724  0.00  0.00     0.038 A 
ATOM     33  C   UNL d   1       8.803  14.523   2.331  0.00  0.00     0.032 A 
BRANCH  31  34
ATOM     34  N   UNL d   1       9.628  15.633   5.778  0.00  0.00    -0.116 N 
ATOM     35  O   UNL d   1      10.634  16.110   6.355  0.00  0.00    -0.532 OA
ATOM     36  O   UNL d   1       8.624  15.232   6.415  0.00  0.00    -0.532 OA
ENDBRANCH  31  34
ENDBRANCH  26  28
ENDBRANCH   3  21
TORSDOF 6
ENDMDL
MODEL 7
REMARK VINA RESULT:      -7.3      5.639     13.286
REMARK  6 active torsions:
REMARK  status: ('A' for Active; 'I' for Inactive)
REMARK    1  A    between atoms: N_8  and  C_18 
REMARK    2  A    between atoms: N_9  and  N_11 
REMARK       I    between atoms: N_9  and  C_22 
REMARK    3  A    between atoms: N_10  and  C_25 
REMARK       I    between atoms: N_11  and  C_27 
REMARK    4  A    between atoms: N_12  and  C_26 
REMARK       I    between atoms: N_12  and  C_27 
REMARK    5  A    between atoms: C_19  and  C_22 
REMARK    6  A    between atoms: C_28  and  C_33 
ROOT
ATOM      1  O   UNL d   1       9.197  14.097  -2.277  0.00  0.00    -0.267 OA
ATOM      2  N   UNL d   1      10.836  14.529  -0.689  0.00  0.00    -0.263 N 
ATOM      3  C   UNL d   1      10.309  13.897  -1.798  0.00  0.00     0.260 C 
ATOM      4  H   UNL d   1      11.761  14.348  -0.314  0.00  0.00     0.190 HD
ENDROOT
BRANCH   2   5
ATOM      5  N   UNL d   1      10.078  15.471  -0.039  0.00  0.00    -0.248 N 
ATOM      6  C   UNL d   1       9.945  15.399   1.347  0.00  0.00     0.339 C 
ATOM      7  O   UNL d   1      10.478  14.528   2.030  0.00  0.00    -0.245 OA
ATOM      8  N   UNL d   1       9.141  16.444   1.809  0.00  0.00    -0.308 N 
ATOM      9  H   UNL d   1       8.778  17.083   1.106  0.00  0.00     0.170 HD
ATOM     10  H   UNL d   1       9.646  16.190  -0.608  0.00  0.00     0.192 HD
BRANCH   8  11
ATOM     11  C   UNL d   1       8.764  16.727   3.143  0.00  0.00     0.037 A 
ATOM     12  C   UNL d   1       8.506  15.684   4.032  0.00  0.00     0.045 A 
ATOM     13  C   UNL d   1       8.134  15.963   5.346  0.00  0.00     0.050 A 
ATOM     14  C   UNL d   1       8.021  17.286   5.773  0.00  0.00     0.016 A 
ATOM     15  C   UNL d   1       8.279  18.330   4.884  0.00  0.00     0.003 A 
ATOM     16  C   UNL d   1       8.651  18.050   3.570  0.00  0.00     0.029 A 
BRANCH  13  17
ATOM     17  C   UNL d   1       7.858  14.847   6.296  0.00  0.00     0.417 C 
ATOM     18  F   UNL d   1       8.831  13.888   6.313  0.00  0.00    -0.166 F 
ATOM     19  F   UNL d   1       6.700  14.174   6.027  0.00  0.00    -0.166 F 
ATOM     20  F   UNL d   1       7.741  15.273   7.588  0.00  0.00    -0.166 F 
ENDBRANCH  13  17
ENDBRANCH   8  11
ENDBRANCH   2   5
BRANCH   3  21
ATOM     21  C   UNL d   1      11.265  12.916  -2.369  0.00  0.00     0.078 C 
ATOM     22  C   UNL d   1      11.402  12.800  -3.698  0.00  0.00    -0.071 C 
ATOM     23  C   UNL d   1      12.351  11.827  -4.342  0.00  0.00     0.054 C 
ATOM     24  C   UNL d   1      10.606  13.614  -4.678  0.00  0.00     0.054 C 
ATOM     25  C   UNL d   1      11.609  10.931  -5.336  0.00  0.00     0.127 C 
ATOM     26  N   UNL d   1      10.814  11.740  -6.276  0.00  0.00    -0.380 N 
ATOM     27  C   UNL d   1       9.882  12.707  -5.677  0.00  0.00     0.127 C 
BRANCH  26  28
ATOM     28  C   UNL d   1      10.513  11.173  -7.519  0.00  0.00     0.030 A 
ATOM     29  C   UNL d   1      11.211  10.048  -7.960  0.00  0.00     0.032 A 
ATOM     30  C   UNL d   1      10.911   9.481  -9.198  0.00  0.00     0.038 A 
ATOM     31  C   UNL d   1       9.913  10.041  -9.998  0.00  0.00     0.103 A 
ATOM     32  C   UNL d   1       9.216  11.166  -9.558  0.00  0.00     0.038 A 
ATOM     33  C   UNL d   1       9.516  11.731  -8.319  0.00  0.00     0.032 A 
BRANCH  31  34
ATOM     34  N   UNL d   1       9.608   9.465 -11.259  0.00  0.00    -0.116 N 
ATOM     35  O   UNL d   1      10.462   9.522 -12.176  0.00  0.00    -0.532 OA
ATOM     36  O   UNL d   1       8.491   8.916 -11.423  0.00  0.00    -0.532 OA
ENDBRANCH  31  34
ENDBRANCH  26  28
ENDBRANCH   3  21
TORSDOF 6
ENDMDL
MODEL 8
REMARK VINA RESULT:      -7.1      2.347      3.161
REMARK  6 active torsions:
REMARK  status: ('A' for Active; 'I' for Inactive)
REMARK    1  A    between atoms: N_8  and  C_18 
REMARK    2  A    between atoms: N_9  and  N_11 
REMARK       I    between atoms: N_9  and  C_22 
REMARK    3  A    between atoms: N_10  and  C_25 
REMARK       I    between atoms: N_11  and  C_27 
REMARK    4  A    between atoms: N_12  and  C_26 
REMARK       I    between atoms: N_12  and  C_27 
REMARK    5  A    between atoms: C_19  and  C_22 
REMARK    6  A    between atoms: C_28  and  C_33 
ROOT
ATOM      1  O   UNL d   1       8.264  12.776  -4.363  0.00  0.00    -0.267 OA
ATOM      2  N   UNL d   1       9.972  13.833  -5.528  0.00  0.00    -0.263 N 
ATOM      3  C   UNL d   1       8.941  13.769  -4.613  0.00  0.00     0.260 C 
ATOM      4  H   UNL d   1      10.520  14.666  -5.716  0.00  0.00     0.190 HD
ENDROOT
BRANCH   2   5
ATOM      5  N   UNL d   1      10.299  12.705  -6.239  0.00  0.00    -0.248 N 
ATOM      6  C   UNL d   1       9.968  12.633  -7.592  0.00  0.00     0.339 C 
ATOM      7  O   UNL d   1       9.391  13.537  -8.193  0.00  0.00    -0.245 OA
ATOM      8  N   UNL d   1      10.387  11.412  -8.127  0.00  0.00    -0.308 N 
ATOM      9  H   UNL d   1      10.853  10.772  -7.489  0.00  0.00     0.170 HD
ATOM     10  H   UNL d   1      10.780  11.966  -5.740  0.00  0.00     0.192 HD
BRANCH   8  11
ATOM     11  C   UNL d   1      10.242  10.950  -9.456  0.00  0.00     0.037 A 
ATOM     12  C   UNL d   1      10.872  11.623 -10.502  0.00  0.00     0.045 A 
ATOM     13  C   UNL d   1      10.728  11.166 -11.812  0.00  0.00     0.050 A 
ATOM     14  C   UNL d   1       9.955  10.036 -12.076  0.00  0.00     0.016 A 
ATOM     15  C   UNL d   1       9.326   9.361 -11.030  0.00  0.00     0.003 A 
ATOM     16  C   UNL d   1       9.469   9.818  -9.720  0.00  0.00     0.029 A 
BRANCH  13  17
ATOM     17  C   UNL d   1      11.402  11.888 -12.931  0.00  0.00     0.417 C 
ATOM     18  F   UNL d   1      10.537  12.555 -13.751  0.00  0.00    -0.166 F 
ATOM     19  F   UNL d   1      12.116  11.068 -13.759  0.00  0.00    -0.166 F 
ATOM     20  F   UNL d   1      12.289  12.827 -12.492  0.00  0.00    -0.166 F 
ENDBRANCH  13  17
ENDBRANCH   8  11
ENDBRANCH   2   5
BRANCH   3  21
ATOM     21  C   UNL d   1       8.730  15.076  -3.941  0.00  0.00     0.078 C 
ATOM     22  C   UNL d   1       9.317  15.332  -2.763  0.00  0.00    -0.071 C 
ATOM     23  C   UNL d   1       9.147  16.633  -2.029  0.00  0.00     0.054 C 
ATOM     24  C   UNL d   1      10.188  14.339  -2.047  0.00  0.00     0.054 C 
ATOM     25  C   UNL d   1       8.650  16.384  -0.604  0.00  0.00     0.127 C 
ATOM     26  N   UNL d   1       9.497  15.391   0.079  0.00  0.00    -0.380 N 
ATOM     27  C   UNL d   1       9.690  14.110  -0.618  0.00  0.00     0.127 C 
BRANCH  26  28
ATOM     28  C   UNL d   1       9.532  15.426   1.478  0.00  0.00     0.030 A 
ATOM     29  C   UNL d   1       8.875  14.442   2.217  0.00  0.00     0.032 A 
ATOM     30  C   UNL d   1       8.910  14.476   3.610  0.00  0.00     0.038 A 
ATOM     31  C   UNL d   1       9.601  15.497   4.266  0.00  0.00     0.103 A 
ATOM     32  C   UNL d   1      10.257  16.480   3.527  0.00  0.00     0.038 A 
ATOM     33  C   UNL d   1      10.223  16.445   2.133  0.00  0.00     0.032 A 
BRANCH  31  34
ATOM     34  N   UNL d   1       9.636  15.533   5.685  0.00  0.00    -0.116 N 
ATOM     35  O   UNL d   1       8.616  15.186   6.327  0.00  0.00    -0.532 OA
ATOM     36  O   UNL d   1      10.686  15.912   6.258  0.00  0.00    -0.532 OA
ENDBRANCH  31  34
ENDBRANCH  26  28
ENDBRANCH   3  21
TORSDOF 6
ENDMDL
MODEL 9
REMARK VINA RESULT:      -7.0      3.142      4.670
REMARK  6 active torsions:
REMARK  status: ('A' for Active; 'I' for Inactive)
REMARK    1  A    between atoms: N_8  and  C_18 
REMARK    2  A    between atoms: N_9  and  N_11 
REMARK       I    between atoms: N_9  and  C_22 
REMARK    3  A    between atoms: N_10  and  C_25 
REMARK       I    between atoms: N_11  and  C_27 
REMARK    4  A    between atoms: N_12  and  C_26 
REMARK       I    between atoms: N_12  and  C_27 
REMARK    5  A    between atoms: C_19  and  C_22 
REMARK    6  A    between atoms: C_28  and  C_33 
ROOT
ATOM      1  O   UNL d   1      11.207  12.531  -4.856  0.00  0.00    -0.267 OA
ATOM      2  N   UNL d   1       9.410  12.563  -6.327  0.00  0.00    -0.263 N 
ATOM      3  C   UNL d   1      10.002  12.482  -5.082  0.00  0.00     0.260 C 
ATOM      4  H   UNL d   1       8.410  12.523  -6.488  0.00  0.00     0.190 HD
ENDROOT
BRANCH   2   5
ATOM      5  N   UNL d   1      10.210  12.713  -7.433  0.00  0.00    -0.248 N 
ATOM      6  C   UNL d   1       9.846  12.087  -8.625  0.00  0.00     0.339 C 
ATOM      7  O   UNL d   1       8.834  11.399  -8.743  0.00  0.00    -0.245 OA
ATOM      8  N   UNL d   1      10.786  12.364  -9.622  0.00  0.00    -0.308 N 
ATOM      9  H   UNL d   1      11.569  12.955  -9.355  0.00  0.00     0.170 HD
ATOM     10  H   UNL d   1      11.039  13.286  -7.331  0.00  0.00     0.192 HD
BRANCH   8  11
ATOM     11  C   UNL d   1      10.784  11.922 -10.965  0.00  0.00     0.037 A 
ATOM     12  C   UNL d   1      11.853  12.234 -11.804  0.00  0.00     0.045 A 
ATOM     13  C   UNL d   1      11.850  11.798 -13.129  0.00  0.00     0.050 A 
ATOM     14  C   UNL d   1      10.779  11.049 -13.614  0.00  0.00     0.016 A 
ATOM     15  C   UNL d   1       9.710  10.735 -12.775  0.00  0.00     0.003 A 
ATOM     16  C   UNL d   1       9.712  11.172 -11.450  0.00  0.00     0.029 A 
BRANCH  13  17
ATOM     17  C   UNL d   1      12.993  12.133 -14.026  0.00  0.00     0.417 C 
ATOM     18  F   UNL d   1      14.091  12.603 -13.363  0.00  0.00    -0.166 F 
ATOM     19  F   UNL d   1      12.699  13.093 -14.952  0.00  0.00    -0.166 F 
ATOM     20  F   UNL d   1      13.432  11.057 -14.743  0.00  0.00    -0.166 F 
ENDBRANCH  13  17
ENDBRANCH   8  11
ENDBRANCH   2   5
BRANCH   3  21
ATOM     21  C   UNL d   1       8.988  12.325  -4.009  0.00  0.00     0.078 C 
ATOM     22  C   UNL d   1       8.807  13.296  -3.103  0.00  0.00    -0.071 C 
ATOM     23  C   UNL d   1       7.799  13.202  -1.991  0.00  0.00     0.054 C 
ATOM     24  C   UNL d   1       9.606  14.569  -3.094  0.00  0.00     0.054 C 
ATOM     25  C   UNL d   1       8.472  13.426  -0.636  0.00  0.00     0.127 C 
ATOM     26  N   UNL d   1       9.271  14.663  -0.647  0.00  0.00    -0.380 N 
ATOM     27  C   UNL d   1      10.261  14.789  -1.728  0.00  0.00     0.127 C 
BRANCH  26  28
ATOM     28  C   UNL d   1       9.510  15.287   0.583  0.00  0.00     0.030 A 
ATOM     29  C   UNL d   1       9.555  16.679   0.662  0.00  0.00     0.032 A 
ATOM     30  C   UNL d   1       9.792  17.301   1.887  0.00  0.00     0.038 A 
ATOM     31  C   UNL d   1       9.986  16.531   3.034  0.00  0.00     0.103 A 
ATOM     32  C   UNL d   1       9.943  15.139   2.955  0.00  0.00     0.038 A 
ATOM     33  C   UNL d   1       9.704  14.517   1.730  0.00  0.00     0.032 A 
BRANCH  31  34
ATOM     34  N   UNL d   1      10.230  17.163   4.282  0.00  0.00    -0.116 N 
ATOM     35  O   UNL d   1      10.550  16.459   5.269  0.00  0.00    -0.532 OA
ATOM     36  O   UNL d   1      10.117  18.411   4.363  0.00  0.00    -0.532 OA
ENDBRANCH  31  34
ENDBRANCH  26  28
ENDBRANCH   3  21
TORSDOF 6
ENDMDL
