MODEL 1
REMARK VINA RESULT:      -4.9      0.000      0.000
REMARK  3 active torsions:
REMARK  status: ('A' for Active; 'I' for Inactive)
REMARK    1  A    between atoms: C_11  and  C_12 
REMARK    2  A    between atoms: C_11  and  C_13 
REMARK    3  A    between atoms: C_12  and  C_14 
ROOT
ATOM      1  C   UNL d   1       9.487  13.684  -1.252  0.00  0.00     0.045 C 
ENDROOT
BRANCH   1   2
ATOM      2  C   UNL d   1      10.130  15.068  -1.062  0.00  0.00     0.045 C 
BRANCH   2   3
ATOM      3  C   UNL d   1       9.539  15.849   0.086  0.00  0.00    -0.020 A 
ATOM      4  C   UNL d   1       9.797  15.453   1.395  0.00  0.00     0.037 A 
ATOM      5 BR   UNL d   1      10.907  13.913   1.675  0.00  0.00    -0.049 Br
ATOM      6  C   UNL d   1       9.251  16.173   2.456  0.00  0.00     0.047 A 
ATOM      7 BR   UNL d   1       9.608  15.615   4.262  0.00  0.00    -0.048 Br
ATOM      8  C   UNL d   1       8.448  17.286   2.204  0.00  0.00     0.048 A 
ATOM      9 BR   UNL d   1       7.693  18.280   3.669  0.00  0.00    -0.048 Br
ATOM     10  C   UNL d   1       8.193  17.678   0.889  0.00  0.00     0.047 A 
ATOM     11 BR   UNL d   1       7.091  19.213   0.524  0.00  0.00    -0.048 Br
ATOM     12  C   UNL d   1       8.740  16.957  -0.172  0.00  0.00     0.037 A 
ATOM     13 BR   UNL d   1       8.426  17.444  -2.000  0.00  0.00    -0.049 Br
ENDBRANCH   2   3
ENDBRANCH   1   2
BRANCH   1  14
ATOM     14  C   UNL d   1       8.776  13.524  -2.565  0.00  0.00    -0.020 A 
ATOM     15  C   UNL d   1       9.502  13.237  -3.720  0.00  0.00     0.037 A 
ATOM     16 BR   UNL d   1      11.405  13.059  -3.567  0.00  0.00    -0.049 Br
ATOM     17  C   UNL d   1       8.841  13.090  -4.941  0.00  0.00     0.047 A 
ATOM     18 BR   UNL d   1       9.859  12.700  -6.527  0.00  0.00    -0.048 Br
ATOM     19  C   UNL d   1       7.455  13.230  -5.005  0.00  0.00     0.048 A 
ATOM     20 BR   UNL d   1       6.544  13.027  -6.689  0.00  0.00    -0.048 Br
ATOM     21  C   UNL d   1       6.729  13.517  -3.849  0.00  0.00     0.047 A 
ATOM     22 BR   UNL d   1       4.816  13.710  -3.919  0.00  0.00    -0.048 Br
ATOM     23  C   UNL d   1       7.390  13.664  -2.629  0.00  0.00     0.037 A 
ATOM     24 BR   UNL d   1       6.449  14.060  -1.005  0.00  0.00    -0.049 Br
ENDBRANCH   1  14
TORSDOF 3
ENDMDL
MODEL 2
REMARK VINA RESULT:      -4.9      0.019      3.583
REMARK  3 active torsions:
REMARK  status: ('A' for Active; 'I' for Inactive)
REMARK    1  A    between atoms: C_11  and  C_12 
REMARK    2  A    between atoms: C_11  and  C_13 
REMARK    3  A    between atoms: C_12  and  C_14 
ROOT
ATOM      1  C   UNL d   1       9.492  13.681  -1.266  0.00  0.00     0.045 C 
ENDROOT
BRANCH   1   2
ATOM      2  C   UNL d   1      10.135  15.064  -1.069  0.00  0.00     0.045 C 
BRANCH   2   3
ATOM      3  C   UNL d   1       9.536  15.845   0.076  0.00  0.00    -0.020 A 
ATOM      4  C   UNL d   1       8.734  16.949  -0.188  0.00  0.00     0.037 A 
ATOM      5 BR   UNL d   1       8.424  17.429  -2.020  0.00  0.00    -0.049 Br
ATOM      6  C   UNL d   1       8.182  17.672   0.869  0.00  0.00     0.047 A 
ATOM      7 BR   UNL d   1       7.077  19.201   0.495  0.00  0.00    -0.048 Br
ATOM      8  C   UNL d   1       8.436  17.287   2.185  0.00  0.00     0.048 A 
ATOM      9 BR   UNL d   1       7.674  18.284   3.645  0.00  0.00    -0.048 Br
ATOM     10  C   UNL d   1       9.242  16.177   2.443  0.00  0.00     0.047 A 
ATOM     11 BR   UNL d   1       9.600  15.630   4.253  0.00  0.00    -0.048 Br
ATOM     12  C   UNL d   1       9.794  15.455   1.385  0.00  0.00     0.037 A 
ATOM     13 BR   UNL d   1      10.911  13.923   1.675  0.00  0.00    -0.049 Br
ENDBRANCH   2   3
ENDBRANCH   1   2
BRANCH   1  14
ATOM     14  C   UNL d   1       8.781  13.527  -2.579  0.00  0.00    -0.020 A 
ATOM     15  C   UNL d   1       7.396  13.673  -2.643  0.00  0.00     0.037 A 
ATOM     16 BR   UNL d   1       6.456  14.069  -1.019  0.00  0.00    -0.049 Br
ATOM     17  C   UNL d   1       6.734  13.527  -3.863  0.00  0.00     0.047 A 
ATOM     18 BR   UNL d   1       4.822  13.725  -3.932  0.00  0.00    -0.048 Br
ATOM     19  C   UNL d   1       7.458  13.237  -5.019  0.00  0.00     0.048 A 
ATOM     20 BR   UNL d   1       6.546  13.037  -6.702  0.00  0.00    -0.048 Br
ATOM     21  C   UNL d   1       8.845  13.091  -4.955  0.00  0.00     0.047 A 
ATOM     22 BR   UNL d   1       9.860  12.695  -6.540  0.00  0.00    -0.048 Br
ATOM     23  C   UNL d   1       9.505  13.237  -3.735  0.00  0.00     0.037 A 
ATOM     24 BR   UNL d   1      11.408  13.048  -3.581  0.00  0.00    -0.049 Br
ENDBRANCH   1  14
TORSDOF 3
ENDMDL
MODEL 3
REMARK VINA RESULT:      -4.9      0.030      7.258
REMARK  3 active torsions:
REMARK  status: ('A' for Active; 'I' for Inactive)
REMARK    1  A    between atoms: C_11  and  C_12 
REMARK    2  A    between atoms: C_11  and  C_13 
REMARK    3  A    between atoms: C_12  and  C_14 
ROOT
ATOM      1  C   UNL d   1      10.126  15.068  -1.046  0.00  0.00     0.045 C 
ENDROOT
BRANCH   1   2
ATOM      2  C   UNL d   1       9.485  13.684  -1.235  0.00  0.00     0.045 C 
BRANCH   2   3
ATOM      3  C   UNL d   1       8.766  13.533  -2.554  0.00  0.00    -0.020 A 
ATOM      4  C   UNL d   1       7.383  13.672  -2.605  0.00  0.00     0.037 A 
ATOM      5 BR   UNL d   1       6.448  14.055  -0.974  0.00  0.00    -0.049 Br
ATOM      6  C   UNL d   1       6.718  13.531  -3.822  0.00  0.00     0.047 A 
ATOM      7 BR   UNL d   1       4.805  13.720  -3.883  0.00  0.00    -0.048 Br
ATOM      8  C   UNL d   1       7.439  13.251  -4.983  0.00  0.00     0.048 A 
ATOM      9 BR   UNL d   1       6.522  13.057  -6.664  0.00  0.00    -0.048 Br
ATOM     10  C   UNL d   1       8.827  13.113  -4.925  0.00  0.00     0.047 A 
ATOM     11 BR   UNL d   1       9.838  12.730  -6.517  0.00  0.00    -0.048 Br
ATOM     12  C   UNL d   1       9.491  13.254  -3.707  0.00  0.00     0.037 A 
ATOM     13 BR   UNL d   1      11.395  13.074  -3.562  0.00  0.00    -0.049 Br
ENDBRANCH   2   3
ENDBRANCH   1   2
BRANCH   1  14
ATOM     14  C   UNL d   1       9.543  15.854   0.093  0.00  0.00    -0.020 A 
ATOM     15  C   UNL d   1       8.745  16.968  -0.165  0.00  0.00     0.037 A 
ATOM     16 BR   UNL d   1       8.430  17.445  -1.996  0.00  0.00    -0.049 Br
ATOM     17  C   UNL d   1       8.205  17.699   0.893  0.00  0.00     0.047 A 
ATOM     18 BR   UNL d   1       7.110  19.237   0.520  0.00  0.00    -0.048 Br
ATOM     19  C   UNL d   1       8.462  17.316   2.209  0.00  0.00     0.048 A 
ATOM     20 BR   UNL d   1       7.716  18.326   3.670  0.00  0.00    -0.048 Br
ATOM     21  C   UNL d   1       9.261  16.202   2.468  0.00  0.00     0.047 A 
ATOM     22 BR   UNL d   1       9.624  15.657   4.276  0.00  0.00    -0.048 Br
ATOM     23  C   UNL d   1       9.801  15.471   1.409  0.00  0.00     0.037 A 
ATOM     24 BR   UNL d   1      10.907  13.930   1.698  0.00  0.00    -0.049 Br
ENDBRANCH   1  14
TORSDOF 3
ENDMDL
MODEL 4
REMARK VINA RESULT:      -4.9      0.036      7.172
REMARK  3 active torsions:
REMARK  status: ('A' for Active; 'I' for Inactive)
REMARK    1  A    between atoms: C_11  and  C_12 
REMARK    2  A    between atoms: C_11  and  C_13 
REMARK    3  A    between atoms: C_12  and  C_14 
ROOT
ATOM      1  C   UNL d   1      10.136  15.038  -1.048  0.00  0.00     0.045 C 
ENDROOT
BRANCH   1   2
ATOM      2  C   UNL d   1       9.473  13.664  -1.239  0.00  0.00     0.045 C 
BRANCH   2   3
ATOM      3  C   UNL d   1       8.759  13.523  -2.561  0.00  0.00    -0.020 A 
ATOM      4  C   UNL d   1       7.378  13.673  -2.619  0.00  0.00     0.037 A 
ATOM      5 BR   UNL d   1       6.438  14.060  -0.992  0.00  0.00    -0.049 Br
ATOM      6  C   UNL d   1       6.718  13.540  -3.840  0.00  0.00     0.047 A 
ATOM      7 BR   UNL d   1       4.807  13.745  -3.910  0.00  0.00    -0.048 Br
ATOM      8  C   UNL d   1       7.443  13.257  -4.998  0.00  0.00     0.048 A 
ATOM      9 BR   UNL d   1       6.533  13.074  -6.683  0.00  0.00    -0.048 Br
ATOM     10  C   UNL d   1       8.829  13.107  -4.933  0.00  0.00     0.047 A 
ATOM     11 BR   UNL d   1       9.845  12.720  -6.520  0.00  0.00    -0.048 Br
ATOM     12  C   UNL d   1       9.488  13.240  -3.711  0.00  0.00     0.037 A 
ATOM     13 BR   UNL d   1      11.390  13.044  -3.556  0.00  0.00    -0.049 Br
ENDBRANCH   2   3
ENDBRANCH   1   2
BRANCH   1  14
ATOM     14  C   UNL d   1       9.559  15.835   0.087  0.00  0.00    -0.020 A 
ATOM     15  C   UNL d   1       9.817  15.458   1.404  0.00  0.00     0.037 A 
ATOM     16 BR   UNL d   1      10.914  13.914   1.701  0.00  0.00    -0.049 Br
ATOM     17  C   UNL d   1       9.280  16.197   2.459  0.00  0.00     0.047 A 
ATOM     18 BR   UNL d   1       9.640  15.660   4.271  0.00  0.00    -0.048 Br
ATOM     19  C   UNL d   1       8.486  17.313   2.196  0.00  0.00     0.048 A 
ATOM     20 BR   UNL d   1       7.745  18.333   3.652  0.00  0.00    -0.048 Br
ATOM     21  C   UNL d   1       8.228  17.690   0.878  0.00  0.00     0.047 A 
ATOM     22 BR   UNL d   1       7.138  19.229   0.496  0.00  0.00    -0.048 Br
ATOM     23  C   UNL d   1       8.766  16.951  -0.176  0.00  0.00     0.037 A 
ATOM     24 BR   UNL d   1       8.448  17.417  -2.010  0.00  0.00    -0.049 Br
ENDBRANCH   1  14
TORSDOF 3
ENDMDL
MODEL 5
REMARK VINA RESULT:      -4.9      0.028      2.534
REMARK  3 active torsions:
REMARK  status: ('A' for Active; 'I' for Inactive)
REMARK    1  A    between atoms: C_11  and  C_12 
REMARK    2  A    between atoms: C_11  and  C_13 
REMARK    3  A    between atoms: C_12  and  C_14 
ROOT
ATOM      1  C   UNL d   1       9.480  13.683  -1.268  0.00  0.00     0.045 C 
ENDROOT
BRANCH   1   2
ATOM      2  C   UNL d   1      10.129  15.063  -1.073  0.00  0.00     0.045 C 
BRANCH   2   3
ATOM      3  C   UNL d   1       9.533  15.849   0.068  0.00  0.00    -0.020 A 
ATOM      4  C   UNL d   1       9.789  15.463   1.380  0.00  0.00     0.037 A 
ATOM      5 BR   UNL d   1      10.906  13.931   1.673  0.00  0.00    -0.049 Br
ATOM      6  C   UNL d   1       9.237  16.188   2.435  0.00  0.00     0.047 A 
ATOM      7 BR   UNL d   1       9.594  15.644   4.246  0.00  0.00    -0.048 Br
ATOM      8  C   UNL d   1       8.430  17.295   2.174  0.00  0.00     0.048 A 
ATOM      9 BR   UNL d   1       7.667  18.295   3.631  0.00  0.00    -0.048 Br
ATOM     10  C   UNL d   1       8.175  17.677   0.856  0.00  0.00     0.047 A 
ATOM     11 BR   UNL d   1       7.067  19.203   0.478  0.00  0.00    -0.048 Br
ATOM     12  C   UNL d   1       8.728  16.951  -0.199  0.00  0.00     0.037 A 
ATOM     13 BR   UNL d   1       8.415  17.425  -2.031  0.00  0.00    -0.049 Br
ENDBRANCH   2   3
ENDBRANCH   1   2
BRANCH   1  14
ATOM     14  C   UNL d   1       8.772  13.528  -2.582  0.00  0.00    -0.020 A 
ATOM     15  C   UNL d   1       7.386  13.674  -2.649  0.00  0.00     0.037 A 
ATOM     16 BR   UNL d   1       6.444  14.070  -1.026  0.00  0.00    -0.049 Br
ATOM     17  C   UNL d   1       6.727  13.528  -3.870  0.00  0.00     0.047 A 
ATOM     18 BR   UNL d   1       4.814  13.726  -3.942  0.00  0.00    -0.048 Br
ATOM     19  C   UNL d   1       7.453  13.238  -5.024  0.00  0.00     0.048 A 
ATOM     20 BR   UNL d   1       6.543  13.037  -6.709  0.00  0.00    -0.048 Br
ATOM     21  C   UNL d   1       8.839  13.092  -4.958  0.00  0.00     0.047 A 
ATOM     22 BR   UNL d   1       9.857  12.695  -6.542  0.00  0.00    -0.048 Br
ATOM     23  C   UNL d   1       9.498  13.238  -3.737  0.00  0.00     0.037 A 
ATOM     24 BR   UNL d   1      11.400  13.049  -3.580  0.00  0.00    -0.049 Br
ENDBRANCH   1  14
TORSDOF 3
ENDMDL
MODEL 6
REMARK VINA RESULT:      -4.9      0.296      7.028
REMARK  3 active torsions:
REMARK  status: ('A' for Active; 'I' for Inactive)
REMARK    1  A    between atoms: C_11  and  C_12 
REMARK    2  A    between atoms: C_11  and  C_13 
REMARK    3  A    between atoms: C_12  and  C_14 
ROOT
ATOM      1  C   UNL d   1      10.191  15.103  -0.881  0.00  0.00     0.045 C 
ENDROOT
BRANCH   1   2
ATOM      2  C   UNL d   1       9.592  13.697  -1.047  0.00  0.00     0.045 C 
BRANCH   2   3
ATOM      3  C   UNL d   1       8.830  13.519  -2.338  0.00  0.00    -0.020 A 
ATOM      4  C   UNL d   1       9.524  13.297  -3.523  0.00  0.00     0.037 A 
ATOM      5 BR   UNL d   1      11.440  13.225  -3.453  0.00  0.00    -0.049 Br
ATOM      6  C   UNL d   1       8.822  13.135  -4.716  0.00  0.00     0.047 A 
ATOM      7 BR   UNL d   1       9.789  12.833  -6.351  0.00  0.00    -0.048 Br
ATOM      8  C   UNL d   1       7.428  13.196  -4.719  0.00  0.00     0.048 A 
ATOM      9 BR   UNL d   1       6.458  12.972  -6.366  0.00  0.00    -0.048 Br
ATOM     10  C   UNL d   1       6.738  13.420  -3.527  0.00  0.00     0.047 A 
ATOM     11 BR   UNL d   1       4.815  13.503  -3.512  0.00  0.00    -0.048 Br
ATOM     12  C   UNL d   1       7.441  13.582  -2.334  0.00  0.00     0.037 A 
ATOM     13 BR   UNL d   1       6.551  13.893  -0.664  0.00  0.00    -0.049 Br
ENDBRANCH   2   3
ENDBRANCH   1   2
BRANCH   1  14
ATOM     14  C   UNL d   1       9.511  15.929   0.172  0.00  0.00    -0.020 A 
ATOM     15  C   UNL d   1       9.723  15.648   1.522  0.00  0.00     0.037 A 
ATOM     16 BR   UNL d   1      10.892  14.194   1.966  0.00  0.00    -0.049 Br
ATOM     17  C   UNL d   1       9.090  16.414   2.502  0.00  0.00     0.047 A 
ATOM     18 BR   UNL d   1       9.387  16.009   4.359  0.00  0.00    -0.048 Br
ATOM     19  C   UNL d   1       8.246  17.461   2.132  0.00  0.00     0.048 A 
ATOM     20 BR   UNL d   1       7.373  18.518   3.483  0.00  0.00    -0.048 Br
ATOM     21  C   UNL d   1       8.035  17.743   0.781  0.00  0.00     0.047 A 
ATOM     22 BR   UNL d   1       6.878  19.185   0.253  0.00  0.00    -0.048 Br
ATOM     23  C   UNL d   1       8.668  16.976  -0.198  0.00  0.00     0.037 A 
ATOM     24 BR   UNL d   1       8.418  17.311  -2.070  0.00  0.00    -0.049 Br
ENDBRANCH   1  14
TORSDOF 3
ENDMDL
MODEL 7
REMARK VINA RESULT:      -4.8      0.074      2.535
REMARK  3 active torsions:
REMARK  status: ('A' for Active; 'I' for Inactive)
REMARK    1  A    between atoms: C_11  and  C_12 
REMARK    2  A    between atoms: C_11  and  C_13 
REMARK    3  A    between atoms: C_12  and  C_14 
ROOT
ATOM      1  C   UNL d   1       9.492  13.677  -1.263  0.00  0.00     0.045 C 
ENDROOT
BRANCH   1   2
ATOM      2  C   UNL d   1      10.141  15.053  -1.038  0.00  0.00     0.045 C 
BRANCH   2   3
ATOM      3  C   UNL d   1       9.534  15.820   0.111  0.00  0.00    -0.020 A 
ATOM      4  C   UNL d   1       8.735  16.929  -0.145  0.00  0.00     0.037 A 
ATOM      5 BR   UNL d   1       8.441  17.432  -1.973  0.00  0.00    -0.049 Br
ATOM      6  C   UNL d   1       8.177  17.639   0.916  0.00  0.00     0.047 A 
ATOM      7 BR   UNL d   1       7.077  19.175   0.553  0.00  0.00    -0.048 Br
ATOM      8  C   UNL d   1       8.419  17.237   2.230  0.00  0.00     0.048 A 
ATOM      9 BR   UNL d   1       7.648  18.217   3.696  0.00  0.00    -0.048 Br
ATOM     10  C   UNL d   1       9.222  16.123   2.481  0.00  0.00     0.047 A 
ATOM     11 BR   UNL d   1       9.565  15.553   4.286  0.00  0.00    -0.048 Br
ATOM     12  C   UNL d   1       9.781  15.414   1.418  0.00  0.00     0.037 A 
ATOM     13 BR   UNL d   1      10.893  13.876   1.697  0.00  0.00    -0.049 Br
ENDBRANCH   2   3
ENDBRANCH   1   2
BRANCH   1  14
ATOM     14  C   UNL d   1       8.801  13.544  -2.589  0.00  0.00    -0.020 A 
ATOM     15  C   UNL d   1       9.542  13.261  -3.736  0.00  0.00     0.037 A 
ATOM     16 BR   UNL d   1      11.440  13.053  -3.553  0.00  0.00    -0.049 Br
ATOM     17  C   UNL d   1       8.901  13.140  -4.969  0.00  0.00     0.047 A 
ATOM     18 BR   UNL d   1       9.940  12.755  -6.542  0.00  0.00    -0.048 Br
ATOM     19  C   UNL d   1       7.519  13.301  -5.055  0.00  0.00     0.048 A 
ATOM     20 BR   UNL d   1       6.634  13.133  -6.757  0.00  0.00    -0.048 Br
ATOM     21  C   UNL d   1       6.777  13.584  -3.908  0.00  0.00     0.047 A 
ATOM     22 BR   UNL d   1       4.868  13.806  -4.008  0.00  0.00    -0.048 Br
ATOM     23  C   UNL d   1       7.419  13.705  -2.675  0.00  0.00     0.037 A 
ATOM     24 BR   UNL d   1       6.456  14.095  -1.062  0.00  0.00    -0.049 Br
ENDBRANCH   1  14
TORSDOF 3
ENDMDL
MODEL 8
REMARK VINA RESULT:      -4.8      0.039      7.167
REMARK  3 active torsions:
REMARK  status: ('A' for Active; 'I' for Inactive)
REMARK    1  A    between atoms: C_11  and  C_12 
REMARK    2  A    between atoms: C_11  and  C_13 
REMARK    3  A    between atoms: C_12  and  C_14 
ROOT
ATOM      1  C   UNL d   1      10.139  15.030  -1.050  0.00  0.00     0.045 C 
ENDROOT
BRANCH   1   2
ATOM      2  C   UNL d   1       9.481  13.654  -1.248  0.00  0.00     0.045 C 
BRANCH   2   3
ATOM      3  C   UNL d   1       8.762  13.520  -2.569  0.00  0.00    -0.020 A 
ATOM      4  C   UNL d   1       9.487  13.240  -3.723  0.00  0.00     0.037 A 
ATOM      5 BR   UNL d   1      11.389  13.036  -3.573  0.00  0.00    -0.049 Br
ATOM      6  C   UNL d   1       8.824  13.117  -4.942  0.00  0.00     0.047 A 
ATOM      7 BR   UNL d   1       9.835  12.735  -6.535  0.00  0.00    -0.048 Br
ATOM      8  C   UNL d   1       7.440  13.275  -5.004  0.00  0.00     0.048 A 
ATOM      9 BR   UNL d   1       6.524  13.105  -6.688  0.00  0.00    -0.048 Br
ATOM     10  C   UNL d   1       6.718  13.555  -3.843  0.00  0.00     0.047 A 
ATOM     11 BR   UNL d   1       4.807  13.772  -3.908  0.00  0.00    -0.048 Br
ATOM     12  C   UNL d   1       7.382  13.679  -2.622  0.00  0.00     0.037 A 
ATOM     13 BR   UNL d   1       6.448  14.064  -0.992  0.00  0.00    -0.049 Br
ENDBRANCH   2   3
ENDBRANCH   1   2
BRANCH   1  14
ATOM     14  C   UNL d   1       9.558  15.819   0.088  0.00  0.00    -0.020 A 
ATOM     15  C   UNL d   1       8.760  16.932  -0.171  0.00  0.00     0.037 A 
ATOM     16 BR   UNL d   1       8.441  17.404  -2.003  0.00  0.00    -0.049 Br
ATOM     17  C   UNL d   1       8.222  17.667   0.886  0.00  0.00     0.047 A 
ATOM     18 BR   UNL d   1       7.128  19.204   0.510  0.00  0.00    -0.048 Br
ATOM     19  C   UNL d   1       8.482  17.288   2.202  0.00  0.00     0.048 A 
ATOM     20 BR   UNL d   1       7.740  18.301   3.662  0.00  0.00    -0.048 Br
ATOM     21  C   UNL d   1       9.281  16.173   2.462  0.00  0.00     0.047 A 
ATOM     22 BR   UNL d   1       9.647  15.633   4.272  0.00  0.00    -0.048 Br
ATOM     23  C   UNL d   1       9.818  15.439   1.404  0.00  0.00     0.037 A 
ATOM     24 BR   UNL d   1      10.924  13.899   1.695  0.00  0.00    -0.049 Br
ENDBRANCH   1  14
TORSDOF 3
ENDMDL
MODEL 9
REMARK VINA RESULT:      -4.8      3.249      7.109
REMARK  3 active torsions:
REMARK  status: ('A' for Active; 'I' for Inactive)
REMARK    1  A    between atoms: C_11  and  C_12 
REMARK    2  A    between atoms: C_11  and  C_13 
REMARK    3  A    between atoms: C_12  and  C_14 
ROOT
ATOM      1  C   UNL d   1       6.872  13.375  -0.258  0.00  0.00     0.045 C 
ENDROOT
BRANCH   1   2
ATOM      2  C   UNL d   1       7.007  14.467  -1.331  0.00  0.00     0.045 C 
BRANCH   2   3
ATOM      3  C   UNL d   1       7.703  13.992  -2.584  0.00  0.00    -0.020 A 
ATOM      4  C   UNL d   1       6.960  13.745  -3.734  0.00  0.00     0.037 A 
ATOM      5 BR   UNL d   1       5.064  14.028  -3.667  0.00  0.00    -0.049 Br
ATOM      6  C   UNL d   1       7.602  13.305  -4.890  0.00  0.00     0.047 A 
ATOM      7 BR   UNL d   1       6.567  12.962  -6.475  0.00  0.00    -0.048 Br
ATOM      8  C   UNL d   1       8.984  13.113  -4.892  0.00  0.00     0.048 A 
ATOM      9 BR   UNL d   1       9.870  12.505  -6.489  0.00  0.00    -0.048 Br
ATOM     10  C   UNL d   1       9.723  13.362  -3.735  0.00  0.00     0.047 A 
ATOM     11 BR   UNL d   1      11.630  13.105  -3.720  0.00  0.00    -0.048 Br
ATOM     12  C   UNL d   1       9.080  13.802  -2.578  0.00  0.00     0.037 A 
ATOM     13 BR   UNL d   1      10.040  14.160  -0.957  0.00  0.00    -0.049 Br
ENDBRANCH   2   3
ENDBRANCH   1   2
BRANCH   1  14
ATOM     14  C   UNL d   1       5.496  12.780  -0.171  0.00  0.00    -0.020 A 
ATOM     15  C   UNL d   1       4.482  13.465   0.498  0.00  0.00     0.037 A 
ATOM     16 BR   UNL d   1       4.909  15.160   1.286  0.00  0.00    -0.049 Br
ATOM     17  C   UNL d   1       3.204  12.912   0.582  0.00  0.00     0.047 A 
ATOM     18 BR   UNL d   1       1.818  13.866   1.514  0.00  0.00    -0.048 Br
ATOM     19  C   UNL d   1       2.939  11.674  -0.005  0.00  0.00     0.048 A 
ATOM     20 BR   UNL d   1       1.175  10.911   0.109  0.00  0.00    -0.048 Br
ATOM     21  C   UNL d   1       3.954  10.989  -0.675  0.00  0.00     0.047 A 
ATOM     22 BR   UNL d   1       3.606   9.284  -1.494  0.00  0.00    -0.048 Br
ATOM     23  C   UNL d   1       5.232  11.543  -0.758  0.00  0.00     0.037 A 
ATOM     24 BR   UNL d   1       6.669  10.652  -1.663  0.00  0.00    -0.049 Br
ENDBRANCH   1  14
TORSDOF 3
ENDMDL
