MODEL 1
REMARK VINA RESULT:      -7.1      0.000      0.000
REMARK  2 active torsions:
REMARK  status: ('A' for Active; 'I' for Inactive)
REMARK    1  A    between atoms: O_1  and  C_7 
REMARK    2  A    between atoms: O_2  and  C_20 
ROOT
ATOM      1  C   UNL d   1       8.962  14.454  -3.226  0.00  0.00    -0.014 C 
ATOM      2  C   UNL d   1      10.414  13.936  -3.200  0.00  0.00     0.001 C 
ATOM      3  C   UNL d   1      10.604  12.709  -4.091  0.00  0.00    -0.001 C 
ATOM      4  C   UNL d   1      10.277  13.106  -5.563  0.00  0.00     0.023 C 
ATOM      5  C   UNL d   1       9.091  15.607  -2.211  0.00  0.00     0.126 C 
ATOM      6  C   UNL d   1       8.635  14.889  -4.659  0.00  0.00     0.013 C 
ATOM      7  C   UNL d   1      10.729  13.835  -1.711  0.00  0.00     0.008 C 
ATOM      8  C   UNL d   1       8.870  13.752  -5.672  0.00  0.00     0.010 C 
ATOM      9  C   UNL d   1       9.966  15.018  -1.087  0.00  0.00     0.033 C 
ATOM     10  C   UNL d   1      12.028  12.153  -4.030  0.00  0.00     0.010 C 
ATOM     11  C   UNL d   1       7.899  13.432  -2.747  0.00  0.00     0.018 C 
ATOM     12  C   UNL d   1      10.530  11.942  -6.518  0.00  0.00    -0.047 A 
ATOM     13  C   UNL d   1      12.111  10.853  -4.825  0.00  0.00     0.039 C 
ATOM     14  C   UNL d   1      11.430  10.911  -6.170  0.00  0.00    -0.049 A 
ATOM     15  C   UNL d   1       9.948  11.911  -7.797  0.00  0.00     0.011 A 
ATOM     16  C   UNL d   1      11.680   9.863  -7.075  0.00  0.00     0.044 A 
ATOM     17  C   UNL d   1      10.210  10.870  -8.690  0.00  0.00     0.037 A 
ATOM     18  C   UNL d   1      11.072   9.843  -8.328  0.00  0.00     0.066 A 
ENDROOT
BRANCH   5  19
ATOM     19  O   UNL d   1       7.843  16.058  -1.724  0.00  0.00    -0.395 OA
ATOM     20  H   UNL d   1       7.379  16.488  -2.463  0.00  0.00     0.210 HD
ENDBRANCH   5  19
BRANCH  18  21
ATOM     21  O   UNL d   1      11.328   8.826  -9.193  0.00  0.00    -0.361 OA
ATOM     22  H   UNL d   1      12.126   9.042  -9.707  0.00  0.00     0.217 HD
ENDBRANCH  18  21
TORSDOF 2
ENDMDL
MODEL 2
REMARK VINA RESULT:      -6.0      4.557      7.568
REMARK  2 active torsions:
REMARK  status: ('A' for Active; 'I' for Inactive)
REMARK    1  A    between atoms: O_1  and  C_7 
REMARK    2  A    between atoms: O_2  and  C_20 
ROOT
ATOM      1  C   UNL d   1       8.162  16.670   4.119  0.00  0.00    -0.014 C 
ATOM      2  C   UNL d   1       9.508  15.941   3.937  0.00  0.00     0.001 C 
ATOM      3  C   UNL d   1       9.601  15.231   2.586  0.00  0.00    -0.001 C 
ATOM      4  C   UNL d   1       9.492  16.296   1.454  0.00  0.00     0.023 C 
ATOM      5  C   UNL d   1       8.360  17.201   5.552  0.00  0.00     0.126 C 
ATOM      6  C   UNL d   1       8.055  17.752   3.038  0.00  0.00     0.013 C 
ATOM      7  C   UNL d   1       9.649  15.128   5.221  0.00  0.00     0.008 C 
ATOM      8  C   UNL d   1       8.218  17.167   1.623  0.00  0.00     0.010 C 
ATOM      9  C   UNL d   1       9.013  16.023   6.300  0.00  0.00     0.033 C 
ATOM     10  C   UNL d   1      10.910  14.457   2.418  0.00  0.00     0.010 C 
ATOM     11  C   UNL d   1       6.913  15.755   4.052  0.00  0.00     0.018 C 
ATOM     12  C   UNL d   1       9.663  15.659   0.077  0.00  0.00    -0.047 A 
ATOM     13  C   UNL d   1      10.877  13.659   1.117  0.00  0.00     0.039 C 
ATOM     14  C   UNL d   1      10.355  14.437  -0.066  0.00  0.00    -0.049 A 
ATOM     15  C   UNL d   1       9.218  16.311  -1.086  0.00  0.00     0.011 A 
ATOM     16  C   UNL d   1      10.535  13.880  -1.345  0.00  0.00     0.044 A 
ATOM     17  C   UNL d   1       9.410  15.752  -2.351  0.00  0.00     0.037 A 
ATOM     18  C   UNL d   1      10.064  14.533  -2.481  0.00  0.00     0.066 A 
ENDROOT
BRANCH   5  19
ATOM     19  O   UNL d   1       7.151  17.605   6.164  0.00  0.00    -0.395 OA
ATOM     20  H   UNL d   1       7.340  18.404   6.687  0.00  0.00     0.210 HD
ENDBRANCH   5  19
BRANCH  18  21
ATOM     21  O   UNL d   1      10.251  13.984  -3.711  0.00  0.00    -0.361 OA
ATOM     22  H   UNL d   1       9.442  13.509  -3.970  0.00  0.00     0.217 HD
ENDBRANCH  18  21
TORSDOF 2
ENDMDL
MODEL 3
REMARK VINA RESULT:      -6.0      5.987     11.195
REMARK  2 active torsions:
REMARK  status: ('A' for Active; 'I' for Inactive)
REMARK    1  A    between atoms: O_1  and  C_7 
REMARK    2  A    between atoms: O_2  and  C_20 
ROOT
ATOM      1  C   UNL d   1       9.605  14.708   1.278  0.00  0.00    -0.014 C 
ATOM      2  C   UNL d   1       8.458  15.739   1.303  0.00  0.00     0.001 C 
ATOM      3  C   UNL d   1       7.704  15.732   2.632  0.00  0.00    -0.001 C 
ATOM      4  C   UNL d   1       8.698  16.115   3.771  0.00  0.00     0.023 C 
ATOM      5  C   UNL d   1      10.096  14.917  -0.167  0.00  0.00     0.126 C 
ATOM      6  C   UNL d   1      10.616  15.093   2.366  0.00  0.00     0.013 C 
ATOM      7  C   UNL d   1       7.698  15.455   0.010  0.00  0.00     0.008 C 
ATOM      8  C   UNL d   1       9.953  15.201   3.752  0.00  0.00     0.010 C 
ATOM      9  C   UNL d   1       8.798  15.047  -0.988  0.00  0.00     0.033 C 
ATOM     10  C   UNL d   1       6.529  16.711   2.646  0.00  0.00     0.010 C 
ATOM     11  C   UNL d   1       9.161  13.238   1.489  0.00  0.00     0.018 C 
ATOM     12  C   UNL d   1       7.985  16.208   5.118  0.00  0.00    -0.047 A 
ATOM     13  C   UNL d   1       5.738  16.551   3.942  0.00  0.00     0.039 C 
ATOM     14  C   UNL d   1       6.597  16.456   5.178  0.00  0.00    -0.049 A 
ATOM     15  C   UNL d   1       8.702  16.140   6.325  0.00  0.00     0.011 A 
ATOM     16  C   UNL d   1       5.960  16.575   6.427  0.00  0.00     0.044 A 
ATOM     17  C   UNL d   1       8.059  16.268   7.558  0.00  0.00     0.037 A 
ATOM     18  C   UNL d   1       6.688  16.480   7.610  0.00  0.00     0.066 A 
ENDROOT
BRANCH   5  19
ATOM     19  O   UNL d   1      10.908  13.858  -0.634  0.00  0.00    -0.395 OA
ATOM     20  H   UNL d   1      11.744  14.246  -0.945  0.00  0.00     0.210 HD
ENDBRANCH   5  19
BRANCH  18  21
ATOM     21  O   UNL d   1       6.059  16.602   8.810  0.00  0.00    -0.361 OA
ATOM     22  H   UNL d   1       5.254  16.054   8.801  0.00  0.00     0.217 HD
ENDBRANCH  18  21
TORSDOF 2
ENDMDL
MODEL 4
REMARK VINA RESULT:      -6.0      3.287      5.899
REMARK  2 active torsions:
REMARK  status: ('A' for Active; 'I' for Inactive)
REMARK    1  A    between atoms: O_1  and  C_7 
REMARK    2  A    between atoms: O_2  and  C_20 
ROOT
ATOM      1  C   UNL d   1       9.485  15.021   2.347  0.00  0.00    -0.014 C 
ATOM      2  C   UNL d   1       8.231  14.799   1.478  0.00  0.00     0.001 C 
ATOM      3  C   UNL d   1       8.517  14.999  -0.010  0.00  0.00    -0.001 C 
ATOM      4  C   UNL d   1       9.583  13.953  -0.458  0.00  0.00     0.023 C 
ATOM      5  C   UNL d   1       8.860  14.818   3.741  0.00  0.00     0.126 C 
ATOM      6  C   UNL d   1      10.532  13.972   1.950  0.00  0.00     0.013 C 
ATOM      7  C   UNL d   1       7.170  15.661   2.158  0.00  0.00     0.008 C 
ATOM      8  C   UNL d   1      10.847  14.019   0.442  0.00  0.00     0.010 C 
ATOM      9  C   UNL d   1       7.511  15.557   3.656  0.00  0.00     0.033 C 
ATOM     10  C   UNL d   1       7.267  14.837  -0.876  0.00  0.00     0.010 C 
ATOM     11  C   UNL d   1      10.110  16.435   2.237  0.00  0.00     0.018 C 
ATOM     12  C   UNL d   1       9.852  14.046  -1.958  0.00  0.00    -0.047 A 
ATOM     13  C   UNL d   1       7.591  15.189  -2.326  0.00  0.00     0.039 C 
ATOM     14  C   UNL d   1       8.884  14.593  -2.827  0.00  0.00    -0.049 A 
ATOM     15  C   UNL d   1      11.024  13.510  -2.520  0.00  0.00     0.011 A 
ATOM     16  C   UNL d   1       9.131  14.639  -4.211  0.00  0.00     0.044 A 
ATOM     17  C   UNL d   1      11.254  13.555  -3.897  0.00  0.00     0.037 A 
ATOM     18  C   UNL d   1      10.310  14.123  -4.743  0.00  0.00     0.066 A 
ENDROOT
BRANCH   5  19
ATOM     19  O   UNL d   1       9.668  15.319   4.787  0.00  0.00    -0.395 OA
ATOM     20  H   UNL d   1       9.115  15.367   5.587  0.00  0.00     0.210 HD
ENDBRANCH   5  19
BRANCH  18  21
ATOM     21  O   UNL d   1      10.532  14.170  -6.083  0.00  0.00    -0.361 OA
ATOM     22  H   UNL d   1      11.175  13.479  -6.321  0.00  0.00     0.217 HD
ENDBRANCH  18  21
TORSDOF 2
ENDMDL
MODEL 5
REMARK VINA RESULT:      -5.9      3.901      8.763
REMARK  2 active torsions:
REMARK  status: ('A' for Active; 'I' for Inactive)
REMARK    1  A    between atoms: O_1  and  C_7 
REMARK    2  A    between atoms: O_2  and  C_20 
ROOT
ATOM      1  C   UNL d   1       8.649  14.709  -1.824  0.00  0.00    -0.014 C 
ATOM      2  C   UNL d   1       9.676  13.963  -0.949  0.00  0.00     0.001 C 
ATOM      3  C   UNL d   1       9.801  14.577   0.445  0.00  0.00    -0.001 C 
ATOM      4  C   UNL d   1       8.419  14.475   1.160  0.00  0.00     0.023 C 
ATOM      5  C   UNL d   1       8.810  13.911  -3.132  0.00  0.00     0.126 C 
ATOM      6  C   UNL d   1       7.273  14.584  -1.157  0.00  0.00     0.013 C 
ATOM      7  C   UNL d   1      10.910  13.879  -1.843  0.00  0.00     0.008 C 
ATOM      8  C   UNL d   1       7.291  15.098   0.295  0.00  0.00     0.010 C 
ATOM      9  C   UNL d   1      10.332  13.709  -3.261  0.00  0.00     0.033 C 
ATOM     10  C   UNL d   1      10.858  13.880   1.302  0.00  0.00     0.010 C 
ATOM     11  C   UNL d   1       8.966  16.207  -2.064  0.00  0.00     0.018 C 
ATOM     12  C   UNL d   1       8.499  14.997   2.593  0.00  0.00    -0.047 A 
ATOM     13  C   UNL d   1      11.032  14.628   2.621  0.00  0.00     0.039 C 
ATOM     14  C   UNL d   1       9.733  15.022   3.279  0.00  0.00    -0.049 A 
ATOM     15  C   UNL d   1       7.342  15.380   3.293  0.00  0.00     0.011 A 
ATOM     16  C   UNL d   1       9.785  15.473   4.611  0.00  0.00     0.044 A 
ATOM     17  C   UNL d   1       7.406  15.817   4.617  0.00  0.00     0.037 A 
ATOM     18  C   UNL d   1       8.628  15.868   5.275  0.00  0.00     0.066 A 
ENDROOT
BRANCH   5  19
ATOM     19  O   UNL d   1       8.273  14.578  -4.257  0.00  0.00    -0.395 OA
ATOM     20  H   UNL d   1       8.857  15.330  -4.458  0.00  0.00     0.210 HD
ENDBRANCH   5  19
BRANCH  18  21
ATOM     21  O   UNL d   1       8.694  16.296   6.564  0.00  0.00    -0.361 OA
ATOM     22  H   UNL d   1       7.811  16.597   6.842  0.00  0.00     0.217 HD
ENDBRANCH  18  21
TORSDOF 2
ENDMDL
MODEL 6
REMARK VINA RESULT:      -5.8     19.329     20.940
REMARK  2 active torsions:
REMARK  status: ('A' for Active; 'I' for Inactive)
REMARK    1  A    between atoms: O_1  and  C_7 
REMARK    2  A    between atoms: O_2  and  C_20 
ROOT
ATOM      1  C   UNL d   1       4.905  -4.206   0.265  0.00  0.00    -0.014 C 
ATOM      2  C   UNL d   1       4.318  -5.499   0.865  0.00  0.00     0.001 C 
ATOM      3  C   UNL d   1       5.039  -5.920   2.146  0.00  0.00    -0.001 C 
ATOM      4  C   UNL d   1       4.866  -4.794   3.209  0.00  0.00     0.023 C 
ATOM      5  C   UNL d   1       4.033  -4.102  -1.001  0.00  0.00     0.126 C 
ATOM      6  C   UNL d   1       4.706  -3.075   1.282  0.00  0.00     0.013 C 
ATOM      7  C   UNL d   1       4.281  -6.458  -0.322  0.00  0.00     0.008 C 
ATOM      8  C   UNL d   1       5.323  -3.419   2.651  0.00  0.00     0.010 C 
ATOM      9  C   UNL d   1       3.959  -5.550  -1.524  0.00  0.00     0.033 C 
ATOM     10  C   UNL d   1       4.502  -7.233   2.718  0.00  0.00     0.010 C 
ATOM     11  C   UNL d   1       6.405  -4.290  -0.119  0.00  0.00     0.018 C 
ATOM     12  C   UNL d   1       5.494  -5.192   4.543  0.00  0.00    -0.047 A 
ATOM     13  C   UNL d   1       5.355  -7.667   3.907  0.00  0.00     0.039 C 
ATOM     14  C   UNL d   1       5.678  -6.552   4.871  0.00  0.00    -0.049 A 
ATOM     15  C   UNL d   1       5.821  -4.225   5.509  0.00  0.00     0.011 A 
ATOM     16  C   UNL d   1       6.225  -6.904   6.118  0.00  0.00     0.044 A 
ATOM     17  C   UNL d   1       6.356  -4.588   6.747  0.00  0.00     0.037 A 
ATOM     18  C   UNL d   1       6.563  -5.927   7.050  0.00  0.00     0.066 A 
ENDROOT
BRANCH   5  19
ATOM     19  O   UNL d   1       4.568  -3.221  -1.970  0.00  0.00    -0.395 OA
ATOM     20  H   UNL d   1       4.323  -3.567  -2.846  0.00  0.00     0.210 HD
ENDBRANCH   5  19
BRANCH  18  21
ATOM     21  O   UNL d   1       7.086  -6.284   8.254  0.00  0.00    -0.361 OA
ATOM     22  H   UNL d   1       6.638  -5.778   8.955  0.00  0.00     0.217 HD
ENDBRANCH  18  21
TORSDOF 2
ENDMDL
MODEL 7
REMARK VINA RESULT:      -5.8      2.197      6.648
REMARK  2 active torsions:
REMARK  status: ('A' for Active; 'I' for Inactive)
REMARK    1  A    between atoms: O_1  and  C_7 
REMARK    2  A    between atoms: O_2  and  C_20 
ROOT
ATOM      1  C   UNL d   1       9.560  11.846 -10.214  0.00  0.00    -0.014 C 
ATOM      2  C   UNL d   1       9.896  10.681  -9.261  0.00  0.00     0.001 C 
ATOM      3  C   UNL d   1      10.606  11.158  -7.995  0.00  0.00    -0.001 C 
ATOM      4  C   UNL d   1       9.659  12.129  -7.227  0.00  0.00     0.023 C 
ATOM      5  C   UNL d   1       8.938  11.046 -11.375  0.00  0.00     0.126 C 
ATOM      6  C   UNL d   1       8.594  12.791  -9.490  0.00  0.00     0.013 C 
ATOM      7  C   UNL d   1      10.586   9.666 -10.169  0.00  0.00     0.008 C 
ATOM      8  C   UNL d   1       9.168  13.279  -8.146  0.00  0.00     0.010 C 
ATOM      9  C   UNL d   1       9.858   9.818 -11.518  0.00  0.00     0.033 C 
ATOM     10  C   UNL d   1      10.994  10.004  -7.069  0.00  0.00     0.010 C 
ATOM     11  C   UNL d   1      10.787  12.652 -10.712  0.00  0.00     0.018 C 
ATOM     12  C   UNL d   1      10.279  12.576  -5.905  0.00  0.00    -0.047 A 
ATOM     13  C   UNL d   1      11.822  10.534  -5.900  0.00  0.00     0.039 C 
ATOM     14  C   UNL d   1      11.267  11.790  -5.275  0.00  0.00    -0.049 A 
ATOM     15  C   UNL d   1       9.822  13.728  -5.242  0.00  0.00     0.011 A 
ATOM     16  C   UNL d   1      11.804  12.197  -4.040  0.00  0.00     0.044 A 
ATOM     17  C   UNL d   1      10.358  14.117  -4.012  0.00  0.00     0.037 A 
ATOM     18  C   UNL d   1      11.352  13.355  -3.413  0.00  0.00     0.066 A 
ENDROOT
BRANCH   5  19
ATOM     19  O   UNL d   1       8.859  11.785 -12.577  0.00  0.00    -0.395 OA
ATOM     20  H   UNL d   1       9.298  11.263 -13.271  0.00  0.00     0.210 HD
ENDBRANCH   5  19
BRANCH  18  21
ATOM     21  O   UNL d   1      11.877  13.733  -2.217  0.00  0.00    -0.361 OA
ATOM     22  H   UNL d   1      12.509  13.053  -1.921  0.00  0.00     0.217 HD
ENDBRANCH  18  21
TORSDOF 2
ENDMDL
MODEL 8
REMARK VINA RESULT:      -5.7      3.372      7.528
REMARK  2 active torsions:
REMARK  status: ('A' for Active; 'I' for Inactive)
REMARK    1  A    between atoms: O_1  and  C_7 
REMARK    2  A    between atoms: O_2  and  C_20 
ROOT
ATOM      1  C   UNL d   1       9.482  12.349 -12.101  0.00  0.00    -0.014 C 
ATOM      2  C   UNL d   1       9.652  10.899 -11.608  0.00  0.00     0.001 C 
ATOM      3  C   UNL d   1      10.409  10.825 -10.282  0.00  0.00    -0.001 C 
ATOM      4  C   UNL d   1       9.593  11.591  -9.198  0.00  0.00     0.023 C 
ATOM      5  C   UNL d   1       8.768  12.075 -13.439  0.00  0.00     0.126 C 
ATOM      6  C   UNL d   1       8.643  13.110 -11.066  0.00  0.00     0.013 C 
ATOM      7  C   UNL d   1      10.209  10.171 -12.829  0.00  0.00     0.008 C 
ATOM      8  C   UNL d   1       9.266  13.037  -9.659  0.00  0.00     0.010 C 
ATOM      9  C   UNL d   1       9.518  10.861 -14.020  0.00  0.00     0.033 C 
ATOM     10  C   UNL d   1      10.633   9.386  -9.813  0.00  0.00     0.010 C 
ATOM     11  C   UNL d   1      10.808  13.113 -12.345  0.00  0.00     0.018 C 
ATOM     12  C   UNL d   1      10.256  11.483  -7.827  0.00  0.00    -0.047 A 
ATOM     13  C   UNL d   1      11.514   9.379  -8.567  0.00  0.00     0.039 C 
ATOM     14  C   UNL d   1      11.126  10.410  -7.535  0.00  0.00    -0.049 A 
ATOM     15  C   UNL d   1       9.951  12.391  -6.799  0.00  0.00     0.011 A 
ATOM     16  C   UNL d   1      11.702  10.304  -6.256  0.00  0.00     0.044 A 
ATOM     17  C   UNL d   1      10.523  12.270  -5.531  0.00  0.00     0.037 A 
ATOM     18  C   UNL d   1      11.403  11.229  -5.260  0.00  0.00     0.066 A 
ENDROOT
BRANCH   5  19
ATOM     19  O   UNL d   1       8.798  13.181 -14.319  0.00  0.00    -0.395 OA
ATOM     20  H   UNL d   1       8.446  12.883 -15.176  0.00  0.00     0.210 HD
ENDBRANCH   5  19
BRANCH  18  21
ATOM     21  O   UNL d   1      11.964  11.110  -4.027  0.00  0.00    -0.361 OA
ATOM     22  H   UNL d   1      11.867  10.190  -3.724  0.00  0.00     0.217 HD
ENDBRANCH  18  21
TORSDOF 2
ENDMDL
MODEL 9
REMARK VINA RESULT:      -5.6     19.736     20.835
REMARK  2 active torsions:
REMARK  status: ('A' for Active; 'I' for Inactive)
REMARK    1  A    between atoms: O_1  and  C_7 
REMARK    2  A    between atoms: O_2  and  C_20 
ROOT
ATOM      1  C   UNL d   1       5.021  -6.730   5.363  0.00  0.00    -0.014 C 
ATOM      2  C   UNL d   1       5.089  -5.229   5.019  0.00  0.00     0.001 C 
ATOM      3  C   UNL d   1       5.322  -4.989   3.528  0.00  0.00    -0.001 C 
ATOM      4  C   UNL d   1       4.126  -5.593   2.732  0.00  0.00     0.023 C 
ATOM      5  C   UNL d   1       4.853  -6.627   6.892  0.00  0.00     0.126 C 
ATOM      6  C   UNL d   1       3.822  -7.335   4.622  0.00  0.00     0.013 C 
ATOM      7  C   UNL d   1       6.090  -4.677   6.031  0.00  0.00     0.008 C 
ATOM      8  C   UNL d   1       3.901  -7.084   3.104  0.00  0.00     0.010 C 
ATOM      9  C   UNL d   1       5.834  -5.511   7.300  0.00  0.00     0.033 C 
ATOM     10  C   UNL d   1       5.449  -3.503   3.184  0.00  0.00     0.010 C 
ATOM     11  C   UNL d   1       6.298  -7.535   5.014  0.00  0.00     0.018 C 
ATOM     12  C   UNL d   1       4.258  -5.312   1.237  0.00  0.00    -0.047 A 
ATOM     13  C   UNL d   1       5.821  -3.342   1.713  0.00  0.00     0.039 C 
ATOM     14  C   UNL d   1       5.027  -4.221   0.778  0.00  0.00    -0.049 A 
ATOM     15  C   UNL d   1       3.550  -6.071   0.290  0.00  0.00     0.011 A 
ATOM     16  C   UNL d   1       5.111  -3.953  -0.600  0.00  0.00     0.044 A 
ATOM     17  C   UNL d   1       3.634  -5.790  -1.075  0.00  0.00     0.037 A 
ATOM     18  C   UNL d   1       4.418  -4.734  -1.522  0.00  0.00     0.066 A 
ENDROOT
BRANCH   5  19
ATOM     19  O   UNL d   1       5.131  -7.841   7.562  0.00  0.00    -0.395 OA
ATOM     20  H   UNL d   1       5.676  -8.385   6.967  0.00  0.00     0.210 HD
ENDBRANCH   5  19
BRANCH  18  21
ATOM     21  O   UNL d   1       4.505  -4.459  -2.850  0.00  0.00    -0.361 OA
ATOM     22  H   UNL d   1       5.011  -3.636  -2.970  0.00  0.00     0.217 HD
ENDBRANCH  18  21
TORSDOF 2
ENDMDL
