MODEL 1
REMARK VINA RESULT:      -1.4      0.000      0.000
REMARK  8 active torsions:
REMARK  status: ('A' for Active; 'I' for Inactive)
REMARK    1  A    between atoms: O_4  and  C_14 
REMARK    2  A    between atoms: O_4  and  C_18 
REMARK    3  A    between atoms: O_5  and  C_17 
REMARK    4  A    between atoms: O_7  and  C_23 
REMARK    5  A    between atoms: N_8  and  CA_10 
REMARK    6  A    between atoms: C_9  and  CA_10 
REMARK    7  A    between atoms: C_9  and  C_11 
REMARK    8  A    between atoms: CA_10  and  C_17 
ROOT
ATOM      1  I   UNL d   1      15.146  -3.223  13.359  0.00  0.00    -0.042 I 
ATOM      2  I   UNL d   1      20.090  -6.025  15.585  0.00  0.00    -0.042 I 
ATOM      3  C   UNL d   1      15.825  -6.463  16.138  0.00  0.00    -0.053 A 
ATOM      4  C   UNL d   1      17.201  -6.611  16.210  0.00  0.00     0.028 A 
ATOM      5  C   UNL d   1      15.243  -5.501  15.328  0.00  0.00     0.028 A 
ATOM      6  C   UNL d   1      17.447  -4.798  14.631  0.00  0.00     0.109 A 
ATOM      7  C   UNL d   1      16.060  -4.663  14.570  0.00  0.00     0.042 A 
ATOM      8  C   UNL d   1      18.017  -5.772  15.451  0.00  0.00     0.042 A 
ENDROOT
BRANCH   6   9
ATOM      9  O   UNL d   1      18.247  -3.978  13.888  0.00  0.00    -0.308 OA
BRANCH   9  10
ATOM     10  C   UNL d   1      18.555  -2.737  14.414  0.00  0.00     0.077 A 
ATOM     11  C   UNL d   1      19.043  -1.749  13.577  0.00  0.00     0.058 A 
ATOM     12  C   UNL d   1      19.353  -0.497  14.109  0.00  0.00     0.042 A 
ATOM     13  I   UNL d   1      20.089   0.978  12.825  0.00  0.00    -0.042 I 
ATOM     14  C   UNL d   1      19.169  -0.253  15.471  0.00  0.00     0.082 A 
ATOM     15  C   UNL d   1      18.675  -1.260  16.299  0.00  0.00     0.040 A 
ATOM     16  C   UNL d   1      18.366  -2.512  15.766  0.00  0.00     0.040 A 
BRANCH  14  17
ATOM     17  O   UNL d   1      19.459   0.956  16.030  0.00  0.00    -0.359 OA
ATOM     18  H   UNL d   1      20.249   1.327  15.600  0.00  0.00     0.217 HD
ENDBRANCH  14  17
ENDBRANCH   9  10
ENDBRANCH   6   9
BRANCH   3  19
ATOM     19  C   UNL d   1      14.940  -7.371  16.959  0.00  0.00     0.085 C 
BRANCH  19  20
ATOM     20  CA  UNL d   1      15.679  -8.614  17.480  0.00  0.00     0.318 C 
BRANCH  20  21
ATOM     21  N   UNL d   1      14.968  -9.822  17.066  0.00  0.00     0.093 N 
ATOM     22  H1  UNL d   1      15.502 -10.645  17.341  0.00  0.00     0.314 HD
ATOM     23  H2  UNL d   1      14.909  -9.856  16.048  0.00  0.00     0.314 HD
ENDBRANCH  20  21
BRANCH  20  24
ATOM     24  C   UNL d   1      15.745  -8.646  18.996  0.00  0.00     0.174 C 
ATOM     25  OXT UNL d   1      15.536  -9.637  19.685  0.00  0.00    -0.648 OA
BRANCH  24  26
ATOM     26  O   UNL d   1      16.104  -7.446  19.524  0.00  0.00    -0.775 OA
ATOM     27  H   UNL d   1      16.917  -7.092  19.104  0.00  0.00     0.167 HD
ENDBRANCH  24  26
ENDBRANCH  20  24
ENDBRANCH  19  20
ENDBRANCH   3  19
TORSDOF 8
ENDMDL
MODEL 2
REMARK VINA RESULT:      -1.4      5.853      8.328
REMARK  8 active torsions:
REMARK  status: ('A' for Active; 'I' for Inactive)
REMARK    1  A    between atoms: O_4  and  C_14 
REMARK    2  A    between atoms: O_4  and  C_18 
REMARK    3  A    between atoms: O_5  and  C_17 
REMARK    4  A    between atoms: O_7  and  C_23 
REMARK    5  A    between atoms: N_8  and  CA_10 
REMARK    6  A    between atoms: C_9  and  CA_10 
REMARK    7  A    between atoms: C_9  and  C_11 
REMARK    8  A    between atoms: CA_10  and  C_17 
ROOT
ATOM      1  I   UNL d   1      13.081 -11.694  14.164  0.00  0.00    -0.042 I 
ATOM      2  I   UNL d   1      15.250  -6.293  12.328  0.00  0.00    -0.042 I 
ATOM      3  C   UNL d   1      16.550  -9.308  15.140  0.00  0.00    -0.053 A 
ATOM      4  C   UNL d   1      16.452  -8.169  14.358  0.00  0.00     0.028 A 
ATOM      5  C   UNL d   1      15.593 -10.307  15.084  0.00  0.00     0.028 A 
ATOM      6  C   UNL d   1      14.392  -9.024  13.427  0.00  0.00     0.109 A 
ATOM      7  C   UNL d   1      14.506 -10.164  14.222  0.00  0.00     0.042 A 
ATOM      8  C   UNL d   1      15.365  -8.026  13.495  0.00  0.00     0.042 A 
ENDROOT
BRANCH   6   9
ATOM      9  O   UNL d   1      13.328  -8.883  12.581  0.00  0.00    -0.308 OA
BRANCH   9  10
ATOM     10  C   UNL d   1      13.411  -9.496  11.344  0.00  0.00     0.077 A 
ATOM     11  C   UNL d   1      14.644  -9.921  10.881  0.00  0.00     0.058 A 
ATOM     12  C   UNL d   1      14.726 -10.539   9.634  0.00  0.00     0.042 A 
ATOM     13  I   UNL d   1      16.598 -11.172   8.955  0.00  0.00    -0.042 I 
ATOM     14  C   UNL d   1      13.573 -10.722   8.868  0.00  0.00     0.082 A 
ATOM     15  C   UNL d   1      12.339 -10.288   9.351  0.00  0.00     0.040 A 
ATOM     16  C   UNL d   1      12.258  -9.670  10.599  0.00  0.00     0.040 A 
BRANCH  14  17
ATOM     17  O   UNL d   1      13.610 -11.321   7.644  0.00  0.00    -0.359 OA
ATOM     18  H   UNL d   1      14.457 -11.116   7.212  0.00  0.00     0.217 HD
ENDBRANCH  14  17
ENDBRANCH   9  10
ENDBRANCH   6   9
BRANCH   3  19
ATOM     19  C   UNL d   1      17.727  -9.463  16.074  0.00  0.00     0.085 C 
BRANCH  19  20
ATOM     20  CA  UNL d   1      18.738  -8.311  15.959  0.00  0.00     0.318 C 
BRANCH  20  21
ATOM     21  N   UNL d   1      20.066  -8.846  15.667  0.00  0.00     0.093 N 
ATOM     22  H1  UNL d   1      20.515  -9.139  16.534  0.00  0.00     0.314 HD
ATOM     23  H2  UNL d   1      20.659  -8.110  15.283  0.00  0.00     0.314 HD
ENDBRANCH  20  21
BRANCH  20  24
ATOM     24  C   UNL d   1      18.859  -7.525  17.252  0.00  0.00     0.174 C 
ATOM     25  OXT UNL d   1      18.112  -7.642  18.215  0.00  0.00    -0.648 OA
BRANCH  24  26
ATOM     26  O   UNL d   1      19.927  -6.685  17.248  0.00  0.00    -0.775 OA
ATOM     27  H   UNL d   1      20.425  -6.724  18.092  0.00  0.00     0.167 HD
ENDBRANCH  24  26
ENDBRANCH  20  24
ENDBRANCH  19  20
ENDBRANCH   3  19
TORSDOF 8
ENDMDL
MODEL 3
REMARK VINA RESULT:      -1.3      4.805      6.663
REMARK  8 active torsions:
REMARK  status: ('A' for Active; 'I' for Inactive)
REMARK    1  A    between atoms: O_4  and  C_14 
REMARK    2  A    between atoms: O_4  and  C_18 
REMARK    3  A    between atoms: O_5  and  C_17 
REMARK    4  A    between atoms: O_7  and  C_23 
REMARK    5  A    between atoms: N_8  and  CA_10 
REMARK    6  A    between atoms: C_9  and  CA_10 
REMARK    7  A    between atoms: C_9  and  C_11 
REMARK    8  A    between atoms: CA_10  and  C_17 
ROOT
ATOM      1  I   UNL d   1      14.235  -0.107  13.375  0.00  0.00    -0.042 I 
ATOM      2  I   UNL d   1      17.840  -4.769  14.962  0.00  0.00    -0.042 I 
ATOM      3  C   UNL d   1      16.239  -3.281  11.232  0.00  0.00    -0.053 A 
ATOM      4  C   UNL d   1      16.908  -4.018  12.196  0.00  0.00     0.028 A 
ATOM      5  C   UNL d   1      15.481  -2.171  11.568  0.00  0.00     0.028 A 
ATOM      6  C   UNL d   1      16.056  -2.518  13.888  0.00  0.00     0.109 A 
ATOM      7  C   UNL d   1      15.388  -1.788  12.906  0.00  0.00     0.042 A 
ATOM      8  C   UNL d   1      16.815  -3.633  13.534  0.00  0.00     0.042 A 
ENDROOT
BRANCH   6   9
ATOM      9  O   UNL d   1      15.966  -2.142  15.199  0.00  0.00    -0.308 OA
BRANCH   9  10
ATOM     10  C   UNL d   1      16.997  -1.379  15.716  0.00  0.00     0.077 A 
ATOM     11  C   UNL d   1      17.150  -1.291  17.089  0.00  0.00     0.058 A 
ATOM     12  C   UNL d   1      18.190  -0.521  17.610  0.00  0.00     0.042 A 
ATOM     13  I   UNL d   1      18.401  -0.403  19.686  0.00  0.00    -0.042 I 
ATOM     14  C   UNL d   1      19.061   0.149  16.749  0.00  0.00     0.082 A 
ATOM     15  C   UNL d   1      18.892   0.048  15.369  0.00  0.00     0.040 A 
ATOM     16  C   UNL d   1      17.851  -0.722  14.848  0.00  0.00     0.040 A 
BRANCH  14  17
ATOM     17  O   UNL d   1      20.090   0.911  17.218  0.00  0.00    -0.359 OA
ATOM     18  H   UNL d   1      20.163   1.717  16.679  0.00  0.00     0.217 HD
ENDBRANCH  14  17
ENDBRANCH   9  10
ENDBRANCH   6   9
BRANCH   3  19
ATOM     19  C   UNL d   1      16.339  -3.697   9.783  0.00  0.00     0.085 C 
BRANCH  19  20
ATOM     20  CA  UNL d   1      16.976  -2.617   8.894  0.00  0.00     0.318 C 
BRANCH  20  21
ATOM     21  N   UNL d   1      16.747  -2.937   7.487  0.00  0.00     0.093 N 
ATOM     22  H1  UNL d   1      16.352  -2.127   7.012  0.00  0.00     0.314 HD
ATOM     23  H2  UNL d   1      16.045  -3.673   7.410  0.00  0.00     0.314 HD
ENDBRANCH  20  21
BRANCH  20  24
ATOM     24  C   UNL d   1      18.480  -2.536   9.082  0.00  0.00     0.174 C 
ATOM     25  OXT UNL d   1      19.088  -1.534   9.439  0.00  0.00    -0.648 OA
BRANCH  24  26
ATOM     26  O   UNL d   1      19.096  -3.724   8.845  0.00  0.00    -0.775 OA
ATOM     27  H   UNL d   1      19.559  -4.061   9.641  0.00  0.00     0.167 HD
ENDBRANCH  24  26
ENDBRANCH  20  24
ENDBRANCH  19  20
ENDBRANCH   3  19
TORSDOF 8
ENDMDL
MODEL 4
REMARK VINA RESULT:      -1.3      4.085      8.620
REMARK  8 active torsions:
REMARK  status: ('A' for Active; 'I' for Inactive)
REMARK    1  A    between atoms: O_4  and  C_14 
REMARK    2  A    between atoms: O_4  and  C_18 
REMARK    3  A    between atoms: O_5  and  C_17 
REMARK    4  A    between atoms: O_7  and  C_23 
REMARK    5  A    between atoms: N_8  and  CA_10 
REMARK    6  A    between atoms: C_9  and  CA_10 
REMARK    7  A    between atoms: C_9  and  C_11 
REMARK    8  A    between atoms: CA_10  and  C_17 
ROOT
ATOM      1  I   UNL d   1      13.423  -6.301  17.024  0.00  0.00    -0.042 I 
ATOM      2  I   UNL d   1      16.374 -10.932  19.687  0.00  0.00    -0.042 I 
ATOM      3  C   UNL d   1      17.528  -7.654  17.116  0.00  0.00    -0.053 A 
ATOM      4  C   UNL d   1      17.530  -8.784  17.918  0.00  0.00     0.028 A 
ATOM      5  C   UNL d   1      16.361  -6.950  16.863  0.00  0.00     0.028 A 
ATOM      6  C   UNL d   1      15.149  -8.525  18.236  0.00  0.00     0.109 A 
ATOM      7  C   UNL d   1      15.164  -7.389  17.427  0.00  0.00     0.042 A 
ATOM      8  C   UNL d   1      16.332  -9.222  18.482  0.00  0.00     0.042 A 
ENDROOT
BRANCH   6   9
ATOM      9  O   UNL d   1      13.976  -8.955  18.790  0.00  0.00    -0.308 OA
BRANCH   9  10
ATOM     10  C   UNL d   1      13.112  -9.669  17.980  0.00  0.00     0.077 A 
ATOM     11  C   UNL d   1      13.622 -10.382  16.909  0.00  0.00     0.058 A 
ATOM     12  C   UNL d   1      12.750 -11.102  16.093  0.00  0.00     0.042 A 
ATOM     13  I   UNL d   1      13.543 -12.169  14.481  0.00  0.00    -0.042 I 
ATOM     14  C   UNL d   1      11.380 -11.098  16.362  0.00  0.00     0.082 A 
ATOM     15  C   UNL d   1      10.884 -10.375  17.446  0.00  0.00     0.040 A 
ATOM     16  C   UNL d   1      11.757  -9.655  18.261  0.00  0.00     0.040 A 
BRANCH  14  17
ATOM     17  O   UNL d   1      10.494 -11.789  15.589  0.00  0.00    -0.359 OA
ATOM     18  H   UNL d   1      10.799 -12.707  15.494  0.00  0.00     0.217 HD
ENDBRANCH  14  17
ENDBRANCH   9  10
ENDBRANCH   6   9
BRANCH   3  19
ATOM     19  C   UNL d   1      18.825  -7.178  16.506  0.00  0.00     0.085 C 
BRANCH  19  20
ATOM     20  CA  UNL d   1      18.615  -6.324  15.246  0.00  0.00     0.318 C 
BRANCH  20  21
ATOM     21  N   UNL d   1      18.877  -7.128  14.054  0.00  0.00     0.093 N 
ATOM     22  H1  UNL d   1      18.049  -7.139  13.460  0.00  0.00     0.314 HD
ATOM     23  H2  UNL d   1      19.040  -8.099  14.321  0.00  0.00     0.314 HD
ENDBRANCH  20  21
BRANCH  20  24
ATOM     24  C   UNL d   1      19.568  -5.143  15.191  0.00  0.00     0.174 C 
ATOM     25  OXT UNL d   1      20.089  -4.618  16.168  0.00  0.00    -0.648 OA
BRANCH  24  26
ATOM     26  O   UNL d   1      19.818  -4.739  13.918  0.00  0.00    -0.775 OA
ATOM     27  H   UNL d   1      20.318  -3.895  13.895  0.00  0.00     0.167 HD
ENDBRANCH  24  26
ENDBRANCH  20  24
ENDBRANCH  19  20
ENDBRANCH   3  19
TORSDOF 8
ENDMDL
MODEL 5
REMARK VINA RESULT:      -1.2      4.400      7.216
REMARK  8 active torsions:
REMARK  status: ('A' for Active; 'I' for Inactive)
REMARK    1  A    between atoms: O_4  and  C_14 
REMARK    2  A    between atoms: O_4  and  C_18 
REMARK    3  A    between atoms: O_5  and  C_17 
REMARK    4  A    between atoms: O_7  and  C_23 
REMARK    5  A    between atoms: N_8  and  CA_10 
REMARK    6  A    between atoms: C_9  and  CA_10 
REMARK    7  A    between atoms: C_9  and  C_11 
REMARK    8  A    between atoms: CA_10  and  C_17 
ROOT
ATOM      1  I   UNL d   1      14.938  -2.419  15.373  0.00  0.00    -0.042 I 
ATOM      2  I   UNL d   1      20.090  -5.645  14.828  0.00  0.00    -0.042 I 
ATOM      3  C   UNL d   1      19.115  -1.656  16.181  0.00  0.00    -0.053 A 
ATOM      4  C   UNL d   1      19.780  -2.821  15.834  0.00  0.00     0.028 A 
ATOM      5  C   UNL d   1      17.740  -1.544  16.050  0.00  0.00     0.028 A 
ATOM      6  C   UNL d   1      17.666  -3.805  15.203  0.00  0.00     0.109 A 
ATOM      7  C   UNL d   1      17.011  -2.626  15.557  0.00  0.00     0.042 A 
ATOM      8  C   UNL d   1      19.050  -3.903  15.341  0.00  0.00     0.042 A 
ENDROOT
BRANCH   6   9
ATOM      9  O   UNL d   1      16.952  -4.865  14.721  0.00  0.00    -0.308 OA
BRANCH   9  10
ATOM     10  C   UNL d   1      16.928  -5.050  13.351  0.00  0.00     0.077 A 
ATOM     11  C   UNL d   1      16.685  -6.314  12.842  0.00  0.00     0.058 A 
ATOM     12  C   UNL d   1      16.662  -6.499  11.460  0.00  0.00     0.042 A 
ATOM     13  I   UNL d   1      16.295  -8.417  10.717  0.00  0.00    -0.042 I 
ATOM     14  C   UNL d   1      16.881  -5.416  10.608  0.00  0.00     0.082 A 
ATOM     15  C   UNL d   1      17.123  -4.149  11.137  0.00  0.00     0.040 A 
ATOM     16  C   UNL d   1      17.147  -3.965  12.520  0.00  0.00     0.040 A 
BRANCH  14  17
ATOM     17  O   UNL d   1      16.866  -5.555   9.251  0.00  0.00    -0.359 OA
ATOM     18  H   UNL d   1      16.352  -6.346   9.015  0.00  0.00     0.217 HD
ENDBRANCH  14  17
ENDBRANCH   9  10
ENDBRANCH   6   9
BRANCH   3  19
ATOM     19  C   UNL d   1      19.905  -0.485  16.715  0.00  0.00     0.085 C 
BRANCH  19  20
ATOM     20  CA  UNL d   1      19.230   0.868  16.439  0.00  0.00     0.318 C 
BRANCH  20  21
ATOM     21  N   UNL d   1      20.090   1.685  15.587  0.00  0.00     0.093 N 
ATOM     22  H1  UNL d   1      20.333   2.547  16.073  0.00  0.00     0.314 HD
ATOM     23  H2  UNL d   1      19.578   1.972  14.753  0.00  0.00     0.314 HD
ENDBRANCH  20  21
BRANCH  20  24
ATOM     24  C   UNL d   1      18.998   1.661  17.713  0.00  0.00     0.174 C 
ATOM     25  OXT UNL d   1      17.960   2.247  17.994  0.00  0.00    -0.648 OA
BRANCH  24  26
ATOM     26  O   UNL d   1      20.071   1.626  18.546  0.00  0.00    -0.775 OA
ATOM     27  H   UNL d   1      19.975   0.934  19.235  0.00  0.00     0.167 HD
ENDBRANCH  24  26
ENDBRANCH  20  24
ENDBRANCH  19  20
ENDBRANCH   3  19
TORSDOF 8
ENDMDL
MODEL 6
REMARK VINA RESULT:      -1.2      4.211      7.591
REMARK  8 active torsions:
REMARK  status: ('A' for Active; 'I' for Inactive)
REMARK    1  A    between atoms: O_4  and  C_14 
REMARK    2  A    between atoms: O_4  and  C_18 
REMARK    3  A    between atoms: O_5  and  C_17 
REMARK    4  A    between atoms: O_7  and  C_23 
REMARK    5  A    between atoms: N_8  and  CA_10 
REMARK    6  A    between atoms: C_9  and  CA_10 
REMARK    7  A    between atoms: C_9  and  C_11 
REMARK    8  A    between atoms: CA_10  and  C_17 
ROOT
ATOM      1  I   UNL d   1      13.804  -6.268  12.403  0.00  0.00    -0.042 I 
ATOM      2  I   UNL d   1      18.879  -8.743  14.718  0.00  0.00    -0.042 I 
ATOM      3  C   UNL d   1      18.040  -5.733  11.731  0.00  0.00    -0.053 A 
ATOM      4  C   UNL d   1      18.669  -6.615  12.594  0.00  0.00     0.028 A 
ATOM      5  C   UNL d   1      16.659  -5.635  11.678  0.00  0.00     0.028 A 
ATOM      6  C   UNL d   1      16.503  -7.337  13.385  0.00  0.00     0.109 A 
ATOM      7  C   UNL d   1      15.886  -6.443  12.510  0.00  0.00     0.042 A 
ATOM      8  C   UNL d   1      17.895  -7.423  13.427  0.00  0.00     0.042 A 
ENDROOT
BRANCH   6   9
ATOM      9  O   UNL d   1      15.745  -8.128  14.202  0.00  0.00    -0.308 OA
BRANCH   9  10
ATOM     10  C   UNL d   1      15.580  -7.720  15.513  0.00  0.00     0.077 A 
ATOM     11  C   UNL d   1      15.352  -8.669  16.493  0.00  0.00     0.058 A 
ATOM     12  C   UNL d   1      15.185  -8.257  17.815  0.00  0.00     0.042 A 
ATOM     13  I   UNL d   1      14.841  -9.709  19.278  0.00  0.00    -0.042 I 
ATOM     14  C   UNL d   1      15.250  -6.900  18.135  0.00  0.00     0.082 A 
ATOM     15  C   UNL d   1      15.482  -5.957  17.135  0.00  0.00     0.040 A 
ATOM     16  C   UNL d   1      15.648  -6.371  15.813  0.00  0.00     0.040 A 
BRANCH  14  17
ATOM     17  O   UNL d   1      15.093  -6.456  19.415  0.00  0.00    -0.359 OA
ATOM     18  H   UNL d   1      15.810  -6.810  19.968  0.00  0.00     0.217 HD
ENDBRANCH  14  17
ENDBRANCH   9  10
ENDBRANCH   6   9
BRANCH   3  19
ATOM     19  C   UNL d   1      18.879  -4.857  10.829  0.00  0.00     0.085 C 
BRANCH  19  20
ATOM     20  CA  UNL d   1      18.133  -3.601  10.354  0.00  0.00     0.318 C 
BRANCH  20  21
ATOM     21  N   UNL d   1      18.428  -3.354   8.944  0.00  0.00     0.093 N 
ATOM     22  H1  UNL d   1      17.582  -3.481   8.391  0.00  0.00     0.314 HD
ATOM     23  H2  UNL d   1      19.090  -4.051   8.603  0.00  0.00     0.314 HD
ENDBRANCH  20  21
BRANCH  20  24
ATOM     24  C   UNL d   1      18.566  -2.359  11.112  0.00  0.00     0.174 C 
ATOM     25  OXT UNL d   1      19.355  -1.522  10.693  0.00  0.00    -0.648 OA
BRANCH  24  26
ATOM     26  O   UNL d   1      17.948  -2.248  12.318  0.00  0.00    -0.775 OA
ATOM     27  H   UNL d   1      18.391  -1.590  12.895  0.00  0.00     0.167 HD
ENDBRANCH  24  26
ENDBRANCH  20  24
ENDBRANCH  19  20
ENDBRANCH   3  19
TORSDOF 8
ENDMDL
MODEL 7
REMARK VINA RESULT:      -1.1      4.723      6.461
REMARK  8 active torsions:
REMARK  status: ('A' for Active; 'I' for Inactive)
REMARK    1  A    between atoms: O_4  and  C_14 
REMARK    2  A    between atoms: O_4  and  C_18 
REMARK    3  A    between atoms: O_5  and  C_17 
REMARK    4  A    between atoms: O_7  and  C_23 
REMARK    5  A    between atoms: N_8  and  CA_10 
REMARK    6  A    between atoms: C_9  and  CA_10 
REMARK    7  A    between atoms: C_9  and  C_11 
REMARK    8  A    between atoms: CA_10  and  C_17 
ROOT
ATOM      1  I   UNL d   1      14.256  -2.177  15.129  0.00  0.00    -0.042 I 
ATOM      2  I   UNL d   1      19.178  -4.992  12.871  0.00  0.00    -0.042 I 
ATOM      3  C   UNL d   1      18.497  -2.035  15.950  0.00  0.00    -0.053 A 
ATOM      4  C   UNL d   1      19.077  -2.935  15.071  0.00  0.00     0.028 A 
ATOM      5  C   UNL d   1      17.128  -1.821  15.965  0.00  0.00     0.028 A 
ATOM      6  C   UNL d   1      16.886  -3.436  14.185  0.00  0.00     0.109 A 
ATOM      7  C   UNL d   1      16.318  -2.526  15.076  0.00  0.00     0.042 A 
ATOM      8  C   UNL d   1      18.266  -3.640  14.183  0.00  0.00     0.042 A 
ENDROOT
BRANCH   6   9
ATOM      9  O   UNL d   1      16.091  -4.127  13.315  0.00  0.00    -0.308 OA
BRANCH   9  10
ATOM     10  C   UNL d   1      15.999  -3.653  12.019  0.00  0.00     0.077 A 
ATOM     11  C   UNL d   1      15.609  -4.516  11.010  0.00  0.00     0.058 A 
ATOM     12  C   UNL d   1      15.517  -4.037   9.703  0.00  0.00     0.042 A 
ATOM     13  I   UNL d   1      14.926  -5.358   8.196  0.00  0.00    -0.042 I 
ATOM     14  C   UNL d   1      15.816  -2.702   9.427  0.00  0.00     0.082 A 
ATOM     15  C   UNL d   1      16.207  -1.847  10.457  0.00  0.00     0.040 A 
ATOM     16  C   UNL d   1      16.299  -2.327  11.763  0.00  0.00     0.040 A 
BRANCH  14  17
ATOM     17  O   UNL d   1      15.737  -2.195   8.163  0.00  0.00    -0.359 OA
ATOM     18  H   UNL d   1      15.618  -2.924   7.531  0.00  0.00     0.217 HD
ENDBRANCH  14  17
ENDBRANCH   9  10
ENDBRANCH   6   9
BRANCH   3  19
ATOM     19  C   UNL d   1      19.376  -1.271  16.913  0.00  0.00     0.085 C 
BRANCH  19  20
ATOM     20  CA  UNL d   1      18.633  -0.128  17.623  0.00  0.00     0.318 C 
BRANCH  20  21
ATOM     21  N   UNL d   1      19.492   1.051  17.694  0.00  0.00     0.093 N 
ATOM     22  H1  UNL d   1      20.396   0.792  18.087  0.00  0.00     0.314 HD
ATOM     23  H2  UNL d   1      19.093   1.731  18.342  0.00  0.00     0.314 HD
ENDBRANCH  20  21
BRANCH  20  24
ATOM     24  C   UNL d   1      18.266  -0.486  19.052  0.00  0.00     0.174 C 
ATOM     25  OXT UNL d   1      17.200  -0.215  19.590  0.00  0.00    -0.648 OA
BRANCH  24  26
ATOM     26  O   UNL d   1      19.248  -1.186  19.678  0.00  0.00    -0.775 OA
ATOM     27  H   UNL d   1      20.046  -1.277  19.116  0.00  0.00     0.167 HD
ENDBRANCH  24  26
ENDBRANCH  20  24
ENDBRANCH  19  20
ENDBRANCH   3  19
TORSDOF 8
ENDMDL
MODEL 8
REMARK VINA RESULT:      -1.0      5.456      7.130
REMARK  8 active torsions:
REMARK  status: ('A' for Active; 'I' for Inactive)
REMARK    1  A    between atoms: O_4  and  C_14 
REMARK    2  A    between atoms: O_4  and  C_18 
REMARK    3  A    between atoms: O_5  and  C_17 
REMARK    4  A    between atoms: O_7  and  C_23 
REMARK    5  A    between atoms: N_8  and  CA_10 
REMARK    6  A    between atoms: C_9  and  CA_10 
REMARK    7  A    between atoms: C_9  and  C_11 
REMARK    8  A    between atoms: CA_10  and  C_17 
ROOT
ATOM      1  I   UNL d   1      14.514  -6.519  12.509  0.00  0.00    -0.042 I 
ATOM      2  I   UNL d   1      15.541 -11.474  15.920  0.00  0.00    -0.042 I 
ATOM      3  C   UNL d   1      14.985 -10.738  11.697  0.00  0.00    -0.053 A 
ATOM      4  C   UNL d   1      15.197 -11.333  12.930  0.00  0.00     0.028 A 
ATOM      5  C   UNL d   1      14.791  -9.371  11.579  0.00  0.00     0.028 A 
ATOM      6  C   UNL d   1      15.022  -9.162  13.975  0.00  0.00     0.109 A 
ATOM      7  C   UNL d   1      14.810  -8.578  12.726  0.00  0.00     0.042 A 
ATOM      8  C   UNL d   1      15.216 -10.540  14.077  0.00  0.00     0.042 A 
ENDROOT
BRANCH   6   9
ATOM      9  O   UNL d   1      15.041  -8.385  15.098  0.00  0.00    -0.308 OA
BRANCH   9  10
ATOM     10  C   UNL d   1      16.277  -8.012  15.596  0.00  0.00     0.077 A 
ATOM     11  C   UNL d   1      17.306  -7.733  14.713  0.00  0.00     0.058 A 
ATOM     12  C   UNL d   1      18.551  -7.357  15.216  0.00  0.00     0.042 A 
ATOM     13  I   UNL d   1      20.089  -6.942  13.864  0.00  0.00    -0.042 I 
ATOM     14  C   UNL d   1      18.748  -7.266  16.594  0.00  0.00     0.082 A 
ATOM     15  C   UNL d   1      17.700  -7.550  17.469  0.00  0.00     0.040 A 
ATOM     16  C   UNL d   1      16.454  -7.926  16.965  0.00  0.00     0.040 A 
BRANCH  14  17
ATOM     17  O   UNL d   1      19.949  -6.902  17.126  0.00  0.00    -0.359 OA
ATOM     18  H   UNL d   1      19.960  -7.119  18.074  0.00  0.00     0.217 HD
ENDBRANCH  14  17
ENDBRANCH   9  10
ENDBRANCH   6   9
BRANCH   3  19
ATOM     19  C   UNL d   1      14.965 -11.597  10.455  0.00  0.00     0.085 C 
BRANCH  19  20
ATOM     20  CA  UNL d   1      16.069 -11.225   9.453  0.00  0.00     0.318 C 
BRANCH  20  21
ATOM     21  N   UNL d   1      15.891 -11.983   8.216  0.00  0.00     0.093 N 
ATOM     22  H1  UNL d   1      16.397 -11.526   7.459  0.00  0.00     0.314 HD
ATOM     23  H2  UNL d   1      14.908 -11.968   7.940  0.00  0.00     0.314 HD
ENDBRANCH  20  21
BRANCH  20  24
ATOM     24  C   UNL d   1      17.454 -11.565   9.975  0.00  0.00     0.174 C 
ATOM     25  OXT UNL d   1      17.833 -12.691  10.271  0.00  0.00    -0.648 OA
BRANCH  24  26
ATOM     26  O   UNL d   1      18.260 -10.475  10.050  0.00  0.00    -0.775 OA
ATOM     27  H   UNL d   1      19.020 -10.540   9.433  0.00  0.00     0.167 HD
ENDBRANCH  24  26
ENDBRANCH  20  24
ENDBRANCH  19  20
ENDBRANCH   3  19
TORSDOF 8
ENDMDL
MODEL 9
REMARK VINA RESULT:      -0.9      4.942      6.764
REMARK  8 active torsions:
REMARK  status: ('A' for Active; 'I' for Inactive)
REMARK    1  A    between atoms: O_4  and  C_14 
REMARK    2  A    between atoms: O_4  and  C_18 
REMARK    3  A    between atoms: O_5  and  C_17 
REMARK    4  A    between atoms: O_7  and  C_23 
REMARK    5  A    between atoms: N_8  and  CA_10 
REMARK    6  A    between atoms: C_9  and  CA_10 
REMARK    7  A    between atoms: C_9  and  C_11 
REMARK    8  A    between atoms: CA_10  and  C_17 
ROOT
ATOM      1  I   UNL d   1      13.970  -1.260  11.295  0.00  0.00    -0.042 I 
ATOM      2  I   UNL d   1      18.101  -5.636  10.276  0.00  0.00    -0.042 I 
ATOM      3  C   UNL d   1      17.091  -3.115  13.640  0.00  0.00    -0.053 A 
ATOM      4  C   UNL d   1      17.675  -4.055  12.807  0.00  0.00     0.028 A 
ATOM      5  C   UNL d   1      16.040  -2.323  13.210  0.00  0.00     0.028 A 
ATOM      6  C   UNL d   1      16.136  -3.415  11.057  0.00  0.00     0.109 A 
ATOM      7  C   UNL d   1      15.559  -2.474  11.909  0.00  0.00     0.042 A 
ATOM      8  C   UNL d   1      17.194  -4.206  11.506  0.00  0.00     0.042 A 
ENDROOT
BRANCH   6   9
ATOM      9  O   UNL d   1      15.665  -3.564   9.784  0.00  0.00    -0.308 OA
BRANCH   9  10
ATOM     10  C   UNL d   1      16.386  -2.972   8.763  0.00  0.00     0.077 A 
ATOM     11  C   UNL d   1      17.255  -1.936   9.061  0.00  0.00     0.058 A 
ATOM     12  C   UNL d   1      17.982  -1.340   8.031  0.00  0.00     0.042 A 
ATOM     13  I   UNL d   1      19.287   0.222   8.505  0.00  0.00    -0.042 I 
ATOM     14  C   UNL d   1      17.829  -1.789   6.718  0.00  0.00     0.082 A 
ATOM     15  C   UNL d   1      16.949  -2.833   6.437  0.00  0.00     0.040 A 
ATOM     16  C   UNL d   1      16.222  -3.429   7.468  0.00  0.00     0.040 A 
BRANCH  14  17
ATOM     17  O   UNL d   1      18.521  -1.233   5.683  0.00  0.00    -0.359 OA
ATOM     18  H   UNL d   1      17.970  -1.251   4.882  0.00  0.00     0.217 HD
ENDBRANCH  14  17
ENDBRANCH   9  10
ENDBRANCH   6   9
BRANCH   3  19
ATOM     19  C   UNL d   1      17.612  -2.952  15.049  0.00  0.00     0.085 C 
BRANCH  19  20
ATOM     20  CA  UNL d   1      18.273  -1.586  15.288  0.00  0.00     0.318 C 
BRANCH  20  21
ATOM     21  N   UNL d   1      19.317  -1.361  14.291  0.00  0.00     0.093 N 
ATOM     22  H1  UNL d   1      18.910  -0.938  13.459  0.00  0.00     0.314 HD
ATOM     23  H2  UNL d   1      19.703  -2.255  13.987  0.00  0.00     0.314 HD
ENDBRANCH  20  21
BRANCH  20  24
ATOM     24  C   UNL d   1      18.945  -1.506  16.648  0.00  0.00     0.174 C 
ATOM     25  OXT UNL d   1      18.508  -0.886  17.609  0.00  0.00    -0.648 OA
BRANCH  24  26
ATOM     26  O   UNL d   1      20.089  -2.238  16.703  0.00  0.00    -0.775 OA
ATOM     27  H   UNL d   1      19.948  -3.158  16.394  0.00  0.00     0.167 HD
ENDBRANCH  24  26
ENDBRANCH  20  24
ENDBRANCH  19  20
ENDBRANCH   3  19
TORSDOF 8
ENDMDL
