MODEL 1
REMARK VINA RESULT:      -1.7      0.000      0.000
REMARK  2 active torsions:
REMARK  status: ('A' for Active; 'I' for Inactive)
REMARK    1  A    between atoms: O_1  and  C_7 
REMARK    2  A    between atoms: O_2  and  C_20 
ROOT
ATOM      1  C   UNL d   1      13.542 -11.278  13.876  0.00  0.00    -0.014 C 
ATOM      2  C   UNL d   1      14.988 -11.635  13.478  0.00  0.00     0.001 C 
ATOM      3  C   UNL d   1      15.986 -10.558  13.903  0.00  0.00    -0.001 C 
ATOM      4  C   UNL d   1      15.949 -10.429  15.456  0.00  0.00     0.023 C 
ATOM      5  C   UNL d   1      12.810 -12.489  13.265  0.00  0.00     0.126 C 
ATOM      6  C   UNL d   1      13.476 -11.188  15.406  0.00  0.00     0.013 C 
ATOM      7  C   UNL d   1      14.869 -12.004  12.002  0.00  0.00     0.008 C 
ATOM      8  C   UNL d   1      14.503 -10.186  15.966  0.00  0.00     0.010 C 
ATOM      9  C   UNL d   1      13.492 -12.687  11.898  0.00  0.00     0.033 C 
ATOM     10  C   UNL d   1      17.416 -10.876  13.463  0.00  0.00     0.010 C 
ATOM     11  C   UNL d   1      13.006  -9.959  13.263  0.00  0.00     0.018 C 
ATOM     12  C   UNL d   1      16.988  -9.425  15.952  0.00  0.00    -0.047 A 
ATOM     13  C   UNL d   1      18.332  -9.699  13.790  0.00  0.00     0.039 C 
ATOM     14  C   UNL d   1      18.125  -9.126  15.171  0.00  0.00    -0.049 A 
ATOM     15  C   UNL d   1      16.886  -8.845  17.228  0.00  0.00     0.011 A 
ATOM     16  C   UNL d   1      19.091  -8.226  15.656  0.00  0.00     0.044 A 
ATOM     17  C   UNL d   1      17.856  -7.960  17.702  0.00  0.00     0.037 A 
ATOM     18  C   UNL d   1      18.957  -7.646  16.914  0.00  0.00     0.066 A 
ENDROOT
BRANCH   5  19
ATOM     19  O   UNL d   1      11.417 -12.284  13.131  0.00  0.00    -0.395 OA
ATOM     20  H   UNL d   1      11.075 -12.021  14.004  0.00  0.00     0.210 HD
ENDBRANCH   5  19
BRANCH  18  21
ATOM     21  O   UNL d   1      19.902  -6.782  17.372  0.00  0.00    -0.361 OA
ATOM     22  H   UNL d   1      19.794  -5.928  16.917  0.00  0.00     0.217 HD
ENDBRANCH  18  21
TORSDOF 2
ENDMDL
MODEL 2
REMARK VINA RESULT:      -1.5      2.146      3.471
REMARK  2 active torsions:
REMARK  status: ('A' for Active; 'I' for Inactive)
REMARK    1  A    between atoms: O_1  and  C_7 
REMARK    2  A    between atoms: O_2  and  C_20 
ROOT
ATOM      1  C   UNL d   1      12.388 -10.258  15.225  0.00  0.00    -0.014 C 
ATOM      2  C   UNL d   1      12.641  -9.911  16.706  0.00  0.00     0.001 C 
ATOM      3  C   UNL d   1      14.116  -9.621  16.986  0.00  0.00    -0.001 C 
ATOM      4  C   UNL d   1      14.551  -8.387  16.139  0.00  0.00     0.023 C 
ATOM      5  C   UNL d   1      10.876 -10.551  15.294  0.00  0.00     0.126 C 
ATOM      6  C   UNL d   1      12.771  -9.039  14.377  0.00  0.00     0.013 C 
ATOM      7  C   UNL d   1      11.945 -11.041  17.460  0.00  0.00     0.008 C 
ATOM      8  C   UNL d   1      14.223  -8.594  14.635  0.00  0.00     0.010 C 
ATOM      9  C   UNL d   1      10.712 -11.362  16.594  0.00  0.00     0.033 C 
ATOM     10  C   UNL d   1      14.387  -9.332  18.464  0.00  0.00     0.010 C 
ATOM     11  C   UNL d   1      13.155 -11.502  14.708  0.00  0.00     0.018 C 
ATOM     12  C   UNL d   1      15.995  -7.993  16.438  0.00  0.00    -0.047 A 
ATOM     13  C   UNL d   1      15.889  -9.193  18.697  0.00  0.00     0.039 C 
ATOM     14  C   UNL d   1      16.594  -8.346  17.666  0.00  0.00    -0.049 A 
ATOM     15  C   UNL d   1      16.731  -7.197  15.543  0.00  0.00     0.011 A 
ATOM     16  C   UNL d   1      17.915  -7.945  17.942  0.00  0.00     0.044 A 
ATOM     17  C   UNL d   1      18.038  -6.799  15.833  0.00  0.00     0.037 A 
ATOM     18  C   UNL d   1      18.632  -7.176  17.030  0.00  0.00     0.066 A 
ENDROOT
BRANCH   5  19
ATOM     19  O   UNL d   1      10.399 -11.262  14.169  0.00  0.00    -0.395 OA
ATOM     20  H   UNL d   1      10.871 -12.112  14.138  0.00  0.00     0.210 HD
ENDBRANCH   5  19
BRANCH  18  21
ATOM     21  O   UNL d   1      19.905  -6.793  17.314  0.00  0.00    -0.361 OA
ATOM     22  H   UNL d   1      20.311  -6.425  16.509  0.00  0.00     0.217 HD
ENDBRANCH  18  21
TORSDOF 2
ENDMDL
MODEL 3
REMARK VINA RESULT:      -1.5      8.673     10.515
REMARK  2 active torsions:
REMARK  status: ('A' for Active; 'I' for Inactive)
REMARK    1  A    between atoms: O_1  and  C_7 
REMARK    2  A    between atoms: O_2  and  C_20 
ROOT
ATOM      1  C   UNL d   1      18.157  -1.834  11.985  0.00  0.00    -0.014 C 
ATOM      2  C   UNL d   1      19.130  -0.650  12.145  0.00  0.00     0.001 C 
ATOM      3  C   UNL d   1      18.987   0.035  13.504  0.00  0.00    -0.001 C 
ATOM      4  C   UNL d   1      19.325  -0.998  14.621  0.00  0.00     0.023 C 
ATOM      5  C   UNL d   1      18.499  -2.243  10.539  0.00  0.00     0.126 C 
ATOM      6  C   UNL d   1      18.502  -2.883  13.050  0.00  0.00     0.013 C 
ATOM      7  C   UNL d   1      18.914   0.163  10.872  0.00  0.00     0.008 C 
ATOM      8  C   UNL d   1      18.472  -2.287  14.471  0.00  0.00     0.010 C 
ATOM      9  C   UNL d   1      18.634  -0.901   9.794  0.00  0.00     0.033 C 
ATOM     10  C   UNL d   1      19.909   1.247  13.651  0.00  0.00     0.010 C 
ATOM     11  C   UNL d   1      16.657  -1.463  12.100  0.00  0.00     0.018 C 
ATOM     12  C   UNL d   1      19.282  -0.352  16.004  0.00  0.00    -0.047 A 
ATOM     13  C   UNL d   1      19.614   1.965  14.966  0.00  0.00     0.039 C 
ATOM     14  C   UNL d   1      19.463   1.041  16.149  0.00  0.00    -0.049 A 
ATOM     15  C   UNL d   1      19.153  -1.131  17.167  0.00  0.00     0.011 A 
ATOM     16  C   UNL d   1      19.456   1.618  17.433  0.00  0.00     0.044 A 
ATOM     17  C   UNL d   1      19.157  -0.547  18.435  0.00  0.00     0.037 A 
ATOM     18  C   UNL d   1      19.303   0.828  18.569  0.00  0.00     0.066 A 
ENDROOT
BRANCH   5  19
ATOM     19  O   UNL d   1      17.516  -3.073   9.951  0.00  0.00    -0.395 OA
ATOM     20  H   UNL d   1      17.072  -3.554  10.671  0.00  0.00     0.210 HD
ENDBRANCH   5  19
BRANCH  18  21
ATOM     21  O   UNL d   1      19.304   1.400  19.802  0.00  0.00    -0.361 OA
ATOM     22  H   UNL d   1      20.224   1.571  20.070  0.00  0.00     0.217 HD
ENDBRANCH  18  21
TORSDOF 2
ENDMDL
MODEL 4
REMARK VINA RESULT:      -1.4      3.507      6.805
REMARK  2 active torsions:
REMARK  status: ('A' for Active; 'I' for Inactive)
REMARK    1  A    between atoms: O_1  and  C_7 
REMARK    2  A    between atoms: O_2  and  C_20 
ROOT
ATOM      1  C   UNL d   1      18.032  -4.660  13.764  0.00  0.00    -0.014 C 
ATOM      2  C   UNL d   1      18.986  -5.348  14.760  0.00  0.00     0.001 C 
ATOM      3  C   UNL d   1      18.254  -6.324  15.681  0.00  0.00    -0.001 C 
ATOM      4  C   UNL d   1      17.607  -7.443  14.809  0.00  0.00     0.023 C 
ATOM      5  C   UNL d   1      19.037  -3.729  13.059  0.00  0.00     0.126 C 
ATOM      6  C   UNL d   1      17.416  -5.742  12.868  0.00  0.00     0.013 C 
ATOM      7  C   UNL d   1      19.764  -4.185  15.369  0.00  0.00     0.008 C 
ATOM      8  C   UNL d   1      16.714  -6.838  13.693  0.00  0.00     0.010 C 
ATOM      9  C   UNL d   1      19.910  -3.185  14.207  0.00  0.00     0.033 C 
ATOM     10  C   UNL d   1      19.183  -6.970  16.711  0.00  0.00     0.010 C 
ATOM     11  C   UNL d   1      16.897  -3.832  14.419  0.00  0.00     0.018 C 
ATOM     12  C   UNL d   1      16.929  -8.499  15.680  0.00  0.00    -0.047 A 
ATOM     13  C   UNL d   1      18.368  -7.817  17.684  0.00  0.00     0.039 C 
ATOM     14  C   UNL d   1      17.330  -8.689  17.019  0.00  0.00    -0.049 A 
ATOM     15  C   UNL d   1      15.957  -9.364  15.148  0.00  0.00     0.011 A 
ATOM     16  C   UNL d   1      16.721  -9.689  17.798  0.00  0.00     0.044 A 
ATOM     17  C   UNL d   1      15.366 -10.359  15.929  0.00  0.00     0.037 A 
ATOM     18  C   UNL d   1      15.744 -10.519  17.256  0.00  0.00     0.066 A 
ENDROOT
BRANCH   5  19
ATOM     19  O   UNL d   1      18.412  -2.687  12.336  0.00  0.00    -0.395 OA
ATOM     20  H   UNL d   1      18.930  -1.877  12.485  0.00  0.00     0.210 HD
ENDBRANCH   5  19
BRANCH  18  21
ATOM     21  O   UNL d   1      15.168 -11.485  18.020  0.00  0.00    -0.361 OA
ATOM     22  H   UNL d   1      14.415 -11.099  18.502  0.00  0.00     0.217 HD
ENDBRANCH  18  21
TORSDOF 2
ENDMDL
MODEL 5
REMARK VINA RESULT:      -1.3      3.972      5.489
REMARK  2 active torsions:
REMARK  status: ('A' for Active; 'I' for Inactive)
REMARK    1  A    between atoms: O_1  and  C_7 
REMARK    2  A    between atoms: O_2  and  C_20 
ROOT
ATOM      1  C   UNL d   1      14.745  -8.370  18.441  0.00  0.00    -0.014 C 
ATOM      2  C   UNL d   1      15.522  -8.205  17.120  0.00  0.00     0.001 C 
ATOM      3  C   UNL d   1      16.640  -9.237  16.975  0.00  0.00    -0.001 C 
ATOM      4  C   UNL d   1      16.005 -10.661  16.965  0.00  0.00     0.023 C 
ATOM      5  C   UNL d   1      13.775  -7.180  18.310  0.00  0.00     0.126 C 
ATOM      6  C   UNL d   1      14.078  -9.751  18.433  0.00  0.00     0.013 C 
ATOM      7  C   UNL d   1      15.869  -6.718  17.095  0.00  0.00     0.008 C 
ATOM      8  C   UNL d   1      15.101 -10.881  18.208  0.00  0.00     0.010 C 
ATOM      9  C   UNL d   1      14.654  -6.042  17.757  0.00  0.00     0.033 C 
ATOM     10  C   UNL d   1      17.453  -9.046  15.693  0.00  0.00     0.010 C 
ATOM     11  C   UNL d   1      15.605  -8.226  19.723  0.00  0.00     0.018 C 
ATOM     12  C   UNL d   1      17.065 -11.737  16.737  0.00  0.00    -0.047 A 
ATOM     13  C   UNL d   1      18.635 -10.012  15.680  0.00  0.00     0.039 C 
ATOM     14  C   UNL d   1      18.280 -11.420  16.092  0.00  0.00    -0.049 A 
ATOM     15  C   UNL d   1      16.824 -13.078  17.079  0.00  0.00     0.011 A 
ATOM     16  C   UNL d   1      19.232 -12.429  15.857  0.00  0.00     0.044 A 
ATOM     17  C   UNL d   1      17.773 -14.072  16.833  0.00  0.00     0.037 A 
ATOM     18  C   UNL d   1      18.980 -13.747  16.227  0.00  0.00     0.066 A 
ENDROOT
BRANCH   5  19
ATOM     19  O   UNL d   1      13.166  -6.825  19.536  0.00  0.00    -0.395 OA
ATOM     20  H   UNL d   1      13.827  -6.341  20.061  0.00  0.00     0.210 HD
ENDBRANCH   5  19
BRANCH  18  21
ATOM     21  O   UNL d   1      19.908 -14.712  15.988  0.00  0.00    -0.361 OA
ATOM     22  H   UNL d   1      19.553 -15.570  16.280  0.00  0.00     0.217 HD
ENDBRANCH  18  21
TORSDOF 2
ENDMDL
MODEL 6
REMARK VINA RESULT:      -1.3      4.137      5.343
REMARK  2 active torsions:
REMARK  status: ('A' for Active; 'I' for Inactive)
REMARK    1  A    between atoms: O_1  and  C_7 
REMARK    2  A    between atoms: O_2  and  C_20 
ROOT
ATOM      1  C   UNL d   1      13.018  -7.848  18.991  0.00  0.00    -0.014 C 
ATOM      2  C   UNL d   1      14.191  -8.785  19.344  0.00  0.00     0.001 C 
ATOM      3  C   UNL d   1      15.187  -8.921  18.192  0.00  0.00    -0.001 C 
ATOM      4  C   UNL d   1      15.790  -7.516  17.887  0.00  0.00     0.023 C 
ATOM      5  C   UNL d   1      12.196  -7.980  20.288  0.00  0.00     0.126 C 
ATOM      6  C   UNL d   1      13.588  -6.449  18.728  0.00  0.00     0.013 C 
ATOM      7  C   UNL d   1      13.499 -10.033  19.885  0.00  0.00     0.008 C 
ATOM      8  C   UNL d   1      14.673  -6.468  17.634  0.00  0.00     0.010 C 
ATOM      9  C   UNL d   1      12.262  -9.484  20.620  0.00  0.00     0.033 C 
ATOM     10  C   UNL d   1      16.325  -9.892  18.511  0.00  0.00     0.010 C 
ATOM     11  C   UNL d   1      12.174  -8.295  17.771  0.00  0.00     0.018 C 
ATOM     12  C   UNL d   1      16.858  -7.598  16.798  0.00  0.00    -0.047 A 
ATOM     13  C   UNL d   1      17.198 -10.090  17.275  0.00  0.00     0.039 C 
ATOM     14  C   UNL d   1      17.540  -8.810  16.554  0.00  0.00    -0.049 A 
ATOM     15  C   UNL d   1      17.251  -6.457  16.078  0.00  0.00     0.011 A 
ATOM     16  C   UNL d   1      18.547  -8.861  15.572  0.00  0.00     0.044 A 
ATOM     17  C   UNL d   1      18.257  -6.519  15.112  0.00  0.00     0.037 A 
ATOM     18  C   UNL d   1      18.902  -7.722  14.855  0.00  0.00     0.066 A 
ENDROOT
BRANCH   5  19
ATOM     19  O   UNL d   1      10.863  -7.532  20.146  0.00  0.00    -0.395 OA
ATOM     20  H   UNL d   1      10.793  -6.675  20.602  0.00  0.00     0.210 HD
ENDBRANCH   5  19
BRANCH  18  21
ATOM     21  O   UNL d   1      19.881  -7.787  13.913  0.00  0.00    -0.361 OA
ATOM     22  H   UNL d   1      20.114  -8.720  13.764  0.00  0.00     0.217 HD
ENDBRANCH  18  21
TORSDOF 2
ENDMDL
MODEL 7
REMARK VINA RESULT:      -1.3      7.731      9.377
REMARK  2 active torsions:
REMARK  status: ('A' for Active; 'I' for Inactive)
REMARK    1  A    between atoms: O_1  and  C_7 
REMARK    2  A    between atoms: O_2  and  C_20 
ROOT
ATOM      1  C   UNL d   1      18.203  -3.633  10.751  0.00  0.00    -0.014 C 
ATOM      2  C   UNL d   1      18.801  -2.215  10.655  0.00  0.00     0.001 C 
ATOM      3  C   UNL d   1      18.707  -1.458  11.979  0.00  0.00    -0.001 C 
ATOM      4  C   UNL d   1      19.525  -2.235  13.056  0.00  0.00     0.023 C 
ATOM      5  C   UNL d   1      18.387  -4.080   9.288  0.00  0.00     0.126 C 
ATOM      6  C   UNL d   1      19.022  -4.427  11.776  0.00  0.00     0.013 C 
ATOM      7  C   UNL d   1      18.134  -1.632   9.412  0.00  0.00     0.008 C 
ATOM      8  C   UNL d   1      19.072  -3.718  13.143  0.00  0.00     0.010 C 
ATOM      9  C   UNL d   1      17.990  -2.839   8.465  0.00  0.00     0.033 C 
ATOM     10  C   UNL d   1      19.246  -0.030  11.880  0.00  0.00     0.010 C 
ATOM     11  C   UNL d   1      16.705  -3.682  11.144  0.00  0.00     0.018 C 
ATOM     12  C   UNL d   1      19.540  -1.484  14.386  0.00  0.00    -0.047 A 
ATOM     13  C   UNL d   1      18.992   0.712  13.189  0.00  0.00     0.039 C 
ATOM     14  C   UNL d   1      19.329  -0.089  14.423  0.00  0.00    -0.049 A 
ATOM     15  C   UNL d   1      19.852  -2.142  15.588  0.00  0.00     0.011 A 
ATOM     16  C   UNL d   1      19.382   0.594  15.652  0.00  0.00     0.044 A 
ATOM     17  C   UNL d   1      19.910  -1.451  16.800  0.00  0.00     0.037 A 
ATOM     18  C   UNL d   1      19.670  -0.083  16.833  0.00  0.00     0.066 A 
ENDROOT
BRANCH   5  19
ATOM     19  O   UNL d   1      17.602  -5.206   8.950  0.00  0.00    -0.395 OA
ATOM     20  H   UNL d   1      17.987  -5.602   8.149  0.00  0.00     0.210 HD
ENDBRANCH   5  19
BRANCH  18  21
ATOM     21  O   UNL d   1      19.722   0.592  18.012  0.00  0.00    -0.361 OA
ATOM     22  H   UNL d   1      20.651   0.661  18.295  0.00  0.00     0.217 HD
ENDBRANCH  18  21
TORSDOF 2
ENDMDL
MODEL 8
REMARK VINA RESULT:      -1.2      3.890      5.476
REMARK  2 active torsions:
REMARK  status: ('A' for Active; 'I' for Inactive)
REMARK    1  A    between atoms: O_1  and  C_7 
REMARK    2  A    between atoms: O_2  and  C_20 
ROOT
ATOM      1  C   UNL d   1      16.074  -8.946  15.069  0.00  0.00    -0.014 C 
ATOM      2  C   UNL d   1      16.287  -9.217  16.571  0.00  0.00     0.001 C 
ATOM      3  C   UNL d   1      16.666 -10.672  16.847  0.00  0.00    -0.001 C 
ATOM      4  C   UNL d   1      18.012 -10.982  16.124  0.00  0.00     0.023 C 
ATOM      5  C   UNL d   1      15.654  -7.465  15.140  0.00  0.00     0.126 C 
ATOM      6  C   UNL d   1      17.401  -9.205  14.344  0.00  0.00     0.013 C 
ATOM      7  C   UNL d   1      15.033  -8.635  17.219  0.00  0.00     0.008 C 
ATOM      8  C   UNL d   1      17.933 -10.626  14.615  0.00  0.00     0.010 C 
ATOM      9  C   UNL d   1      14.703  -7.405  16.352  0.00  0.00     0.033 C 
ATOM     10  C   UNL d   1      16.824 -10.965  18.340  0.00  0.00     0.010 C 
ATOM     11  C   UNL d   1      14.957  -9.792  14.407  0.00  0.00     0.018 C 
ATOM     12  C   UNL d   1      18.490 -12.400  16.430  0.00  0.00    -0.047 A 
ATOM     13  C   UNL d   1      17.060 -12.458  18.552  0.00  0.00     0.039 C 
ATOM     14  C   UNL d   1      18.063 -13.062  17.601  0.00  0.00    -0.049 A 
ATOM     15  C   UNL d   1      19.430 -13.043  15.607  0.00  0.00     0.011 A 
ATOM     16  C   UNL d   1      18.539 -14.355  17.887  0.00  0.00     0.044 A 
ATOM     17  C   UNL d   1      19.902 -14.323  15.907  0.00  0.00     0.037 A 
ATOM     18  C   UNL d   1      19.453 -14.981  17.044  0.00  0.00     0.066 A 
ENDROOT
BRANCH   5  19
ATOM     19  O   UNL d   1      15.026  -7.010  13.958  0.00  0.00    -0.395 OA
ATOM     20  H   UNL d   1      15.371  -7.542  13.220  0.00  0.00     0.210 HD
ENDBRANCH   5  19
BRANCH  18  21
ATOM     21  O   UNL d   1      19.908 -16.228  17.338  0.00  0.00    -0.361 OA
ATOM     22  H   UNL d   1      19.786 -16.800  16.559  0.00  0.00     0.217 HD
ENDBRANCH  18  21
TORSDOF 2
ENDMDL
MODEL 9
REMARK VINA RESULT:      -1.2      6.453      8.362
REMARK  2 active torsions:
REMARK  status: ('A' for Active; 'I' for Inactive)
REMARK    1  A    between atoms: O_1  and  C_7 
REMARK    2  A    between atoms: O_2  and  C_20 
ROOT
ATOM      1  C   UNL d   1      14.979  -4.762  15.723  0.00  0.00    -0.014 C 
ATOM      2  C   UNL d   1      14.238  -3.590  16.398  0.00  0.00     0.001 C 
ATOM      3  C   UNL d   1      15.155  -2.778  17.313  0.00  0.00    -0.001 C 
ATOM      4  C   UNL d   1      16.303  -2.168  16.454  0.00  0.00     0.023 C 
ATOM      5  C   UNL d   1      13.800  -5.391  14.955  0.00  0.00     0.126 C 
ATOM      6  C   UNL d   1      16.088  -4.179  14.839  0.00  0.00     0.013 C 
ATOM      7  C   UNL d   1      12.990  -4.248  16.982  0.00  0.00     0.008 C 
ATOM      8  C   UNL d   1      17.038  -3.266  15.638  0.00  0.00     0.010 C 
ATOM      9  C   UNL d   1      12.632  -5.341  15.958  0.00  0.00     0.033 C 
ATOM     10  C   UNL d   1      14.416  -1.648  18.031  0.00  0.00     0.010 C 
ATOM     11  C   UNL d   1      15.595  -5.792  16.704  0.00  0.00     0.018 C 
ATOM     12  C   UNL d   1      17.209  -1.274  17.297  0.00  0.00    -0.047 A 
ATOM     13  C   UNL d   1      15.350  -0.972  19.031  0.00  0.00     0.039 C 
ATOM     14  C   UNL d   1      16.728  -0.685  18.486  0.00  0.00    -0.049 A 
ATOM     15  C   UNL d   1      18.506  -0.943  16.868  0.00  0.00     0.011 A 
ATOM     16  C   UNL d   1      17.563   0.165  19.234  0.00  0.00     0.044 A 
ATOM     17  C   UNL d   1      19.322  -0.091  17.615  0.00  0.00     0.037 A 
ATOM     18  C   UNL d   1      18.853   0.460  18.801  0.00  0.00     0.066 A 
ENDROOT
BRANCH   5  19
ATOM     19  O   UNL d   1      14.064  -6.712  14.523  0.00  0.00    -0.395 OA
ATOM     20  H   UNL d   1      13.534  -6.868  13.722  0.00  0.00     0.210 HD
ENDBRANCH   5  19
BRANCH  18  21
ATOM     21  O   UNL d   1      19.646   1.287  19.533  0.00  0.00    -0.361 OA
ATOM     22  H   UNL d   1      19.684   2.156  19.095  0.00  0.00     0.217 HD
ENDBRANCH  18  21
TORSDOF 2
ENDMDL
