MODEL 1
REMARK VINA RESULT:      -1.3      0.000      0.000
REMARK  12 active torsions:
REMARK  status: ('A' for Active; 'I' for Inactive)
REMARK    1  A    between atoms: P_4  and  O_5 
REMARK    2  A    between atoms: P_4  and  O_6 
REMARK    3  A    between atoms: P_4  and  O_7 
REMARK    4  A    between atoms: O_5  and  C_9 
REMARK    5  A    between atoms: O_6  and  C_10 
REMARK    6  A    between atoms: O_7  and  C_11 
REMARK    7  A    between atoms: C_9  and  C_12 
REMARK    8  A    between atoms: C_10  and  C_13 
REMARK    9  A    between atoms: C_11  and  C_14 
REMARK   10  A    between atoms: C_12  and  C_15 
REMARK   11  A    between atoms: C_13  and  C_16 
REMARK   12  A    between atoms: C_14  and  C_17 
ROOT
ATOM      1  P   UNL d   1      19.002  -6.288  15.866  0.00  0.00     0.477 P 
ATOM      2  O   UNL d   1      19.964  -6.569  16.985  0.00  0.00    -0.227 OA
ENDROOT
BRANCH   1   3
ATOM      3  O   UNL d   1      17.524  -6.920  16.081  0.00  0.00    -0.292 OA
BRANCH   3   4
ATOM      4  C   UNL d   1      17.294  -7.852  17.125  0.00  0.00     0.181 C 
BRANCH   4   5
ATOM      5  C   UNL d   1      15.864  -8.367  17.012  0.00  0.00     0.042 C 
BRANCH   5   6
ATOM      6  C   UNL d   1      15.320  -8.347  15.591  0.00  0.00     0.116 C 
ATOM      7 CL   UNL d   1      16.000  -9.656  14.598  0.00  0.00    -0.130 Cl
ENDBRANCH   5   6
ENDBRANCH   4   5
ENDBRANCH   3   4
ENDBRANCH   1   3
BRANCH   1   8
ATOM      8  O   UNL d   1      19.471  -6.839  14.417  0.00  0.00    -0.292 OA
BRANCH   8   9
ATOM      9  C   UNL d   1      20.376  -7.929  14.370  0.00  0.00     0.181 C 
BRANCH   9  10
ATOM     10  C   UNL d   1      19.985  -8.840  13.212  0.00  0.00     0.042 C 
BRANCH  10  11
ATOM     11  C   UNL d   1      19.591 -10.246  13.647  0.00  0.00     0.116 C 
ATOM     12 CL   UNL d   1      19.335 -10.353  15.404  0.00  0.00    -0.130 Cl
ENDBRANCH  10  11
ENDBRANCH   9  10
ENDBRANCH   8   9
ENDBRANCH   1   8
BRANCH   1  13
ATOM     13  O   UNL d   1      18.732  -4.715  15.586  0.00  0.00    -0.292 OA
BRANCH  13  14
ATOM     14  C   UNL d   1      19.692  -3.989  14.838  0.00  0.00     0.181 C 
BRANCH  14  15
ATOM     15  C   UNL d   1      19.099  -2.636  14.466  0.00  0.00     0.042 C 
BRANCH  15  16
ATOM     16  C   UNL d   1      19.894  -1.453  15.002  0.00  0.00     0.116 C 
ATOM     17 CL   UNL d   1      20.337  -1.668  16.711  0.00  0.00    -0.130 Cl
ENDBRANCH  15  16
ENDBRANCH  14  15
ENDBRANCH  13  14
ENDBRANCH   1  13
TORSDOF 12
ENDMDL
MODEL 2
REMARK VINA RESULT:      -1.2      2.508      5.389
REMARK  12 active torsions:
REMARK  status: ('A' for Active; 'I' for Inactive)
REMARK    1  A    between atoms: P_4  and  O_5 
REMARK    2  A    between atoms: P_4  and  O_6 
REMARK    3  A    between atoms: P_4  and  O_7 
REMARK    4  A    between atoms: O_5  and  C_9 
REMARK    5  A    between atoms: O_6  and  C_10 
REMARK    6  A    between atoms: O_7  and  C_11 
REMARK    7  A    between atoms: C_9  and  C_12 
REMARK    8  A    between atoms: C_10  and  C_13 
REMARK    9  A    between atoms: C_11  and  C_14 
REMARK   10  A    between atoms: C_12  and  C_15 
REMARK   11  A    between atoms: C_13  and  C_16 
REMARK   12  A    between atoms: C_14  and  C_17 
ROOT
ATOM      1  P   UNL d   1      19.070  -5.668  14.506  0.00  0.00     0.477 P 
ATOM      2  O   UNL d   1      17.752  -6.280  14.124  0.00  0.00    -0.227 OA
ENDROOT
BRANCH   1   3
ATOM      3  O   UNL d   1      20.088  -6.684  15.252  0.00  0.00    -0.292 OA
BRANCH   3   4
ATOM      4  C   UNL d   1      19.591  -7.850  15.889  0.00  0.00     0.181 C 
BRANCH   4   5
ATOM      5  C   UNL d   1      19.026  -7.460  17.249  0.00  0.00     0.042 C 
BRANCH   5   6
ATOM      6  C   UNL d   1      17.632  -8.015  17.512  0.00  0.00     0.116 C 
ATOM      7 CL   UNL d   1      17.385  -8.413  19.227  0.00  0.00    -0.130 Cl
ENDBRANCH   5   6
ENDBRANCH   4   5
ENDBRANCH   3   4
ENDBRANCH   1   3
BRANCH   1   8
ATOM      8  O   UNL d   1      18.960  -4.399  15.507  0.00  0.00    -0.292 OA
BRANCH   8   9
ATOM      9  C   UNL d   1      18.708  -3.120  14.950  0.00  0.00     0.181 C 
BRANCH   9  10
ATOM     10  C   UNL d   1      19.509  -2.082  15.727  0.00  0.00     0.042 C 
BRANCH  10  11
ATOM     11  C   UNL d   1      20.388  -1.204  14.847  0.00  0.00     0.116 C 
ATOM     12 CL   UNL d   1      20.365  -1.728  13.148  0.00  0.00    -0.130 Cl
ENDBRANCH  10  11
ENDBRANCH   9  10
ENDBRANCH   8   9
ENDBRANCH   1   8
BRANCH   1  13
ATOM     13  O   UNL d   1      19.925  -5.077  13.263  0.00  0.00    -0.292 OA
BRANCH  13  14
ATOM     14  C   UNL d   1      20.388  -5.980  12.274  0.00  0.00     0.181 C 
BRANCH  14  15
ATOM     15  C   UNL d   1      19.521  -5.830  11.030  0.00  0.00     0.042 C 
BRANCH  15  16
ATOM     16  C   UNL d   1      19.167  -7.155  10.369  0.00  0.00     0.116 C 
ATOM     17 CL   UNL d   1      18.745  -8.403  11.564  0.00  0.00    -0.130 Cl
ENDBRANCH  15  16
ENDBRANCH  14  15
ENDBRANCH  13  14
ENDBRANCH   1  13
TORSDOF 12
ENDMDL
MODEL 3
REMARK VINA RESULT:      -0.9      3.159      4.575
REMARK  12 active torsions:
REMARK  status: ('A' for Active; 'I' for Inactive)
REMARK    1  A    between atoms: P_4  and  O_5 
REMARK    2  A    between atoms: P_4  and  O_6 
REMARK    3  A    between atoms: P_4  and  O_7 
REMARK    4  A    between atoms: O_5  and  C_9 
REMARK    5  A    between atoms: O_6  and  C_10 
REMARK    6  A    between atoms: O_7  and  C_11 
REMARK    7  A    between atoms: C_9  and  C_12 
REMARK    8  A    between atoms: C_10  and  C_13 
REMARK    9  A    between atoms: C_11  and  C_14 
REMARK   10  A    between atoms: C_12  and  C_15 
REMARK   11  A    between atoms: C_13  and  C_16 
REMARK   12  A    between atoms: C_14  and  C_17 
ROOT
ATOM      1  P   UNL d   1      16.628  -6.510  14.374  0.00  0.00     0.477 P 
ATOM      2  O   UNL d   1      16.260  -6.836  15.794  0.00  0.00    -0.227 OA
ENDROOT
BRANCH   1   3
ATOM      3  O   UNL d   1      16.866  -7.807  13.431  0.00  0.00    -0.292 OA
BRANCH   3   4
ATOM      4  C   UNL d   1      18.167  -8.353  13.288  0.00  0.00     0.181 C 
BRANCH   4   5
ATOM      5  C   UNL d   1      18.133  -9.814  13.720  0.00  0.00     0.042 C 
BRANCH   5   6
ATOM      6  C   UNL d   1      18.535 -10.029  15.172  0.00  0.00     0.116 C 
ATOM      7 CL   UNL d   1      17.124 -10.105  16.251  0.00  0.00    -0.130 Cl
ENDBRANCH   5   6
ENDBRANCH   4   5
ENDBRANCH   3   4
ENDBRANCH   1   3
BRANCH   1   8
ATOM      8  O   UNL d   1      17.982  -5.637  14.211  0.00  0.00    -0.292 OA
BRANCH   8   9
ATOM      9  C   UNL d   1      18.637  -5.182  15.382  0.00  0.00     0.181 C 
BRANCH   9  10
ATOM     10  C   UNL d   1      20.101  -5.601  15.317  0.00  0.00     0.042 C 
BRANCH  10  11
ATOM     11  C   UNL d   1      20.387  -6.932  16.000  0.00  0.00     0.116 C 
ATOM     12 CL   UNL d   1      19.258  -7.250  17.337  0.00  0.00    -0.130 Cl
ENDBRANCH  10  11
ENDBRANCH   9  10
ENDBRANCH   8   9
ENDBRANCH   1   8
BRANCH   1  13
ATOM     13  O   UNL d   1      15.528  -5.627  13.577  0.00  0.00    -0.292 OA
BRANCH  13  14
ATOM     14  C   UNL d   1      15.278  -4.303  14.017  0.00  0.00     0.181 C 
BRANCH  14  15
ATOM     15  C   UNL d   1      13.793  -4.005  13.850  0.00  0.00     0.042 C 
BRANCH  15  16
ATOM     16  C   UNL d   1      12.892  -5.189  14.173  0.00  0.00     0.116 C 
ATOM     17 CL   UNL d   1      11.898  -4.895  15.618  0.00  0.00    -0.130 Cl
ENDBRANCH  15  16
ENDBRANCH  14  15
ENDBRANCH  13  14
ENDBRANCH   1  13
TORSDOF 12
ENDMDL
MODEL 4
REMARK VINA RESULT:      -0.9      3.243      4.796
REMARK  12 active torsions:
REMARK  status: ('A' for Active; 'I' for Inactive)
REMARK    1  A    between atoms: P_4  and  O_5 
REMARK    2  A    between atoms: P_4  and  O_6 
REMARK    3  A    between atoms: P_4  and  O_7 
REMARK    4  A    between atoms: O_5  and  C_9 
REMARK    5  A    between atoms: O_6  and  C_10 
REMARK    6  A    between atoms: O_7  and  C_11 
REMARK    7  A    between atoms: C_9  and  C_12 
REMARK    8  A    between atoms: C_10  and  C_13 
REMARK    9  A    between atoms: C_11  and  C_14 
REMARK   10  A    between atoms: C_12  and  C_15 
REMARK   11  A    between atoms: C_13  and  C_16 
REMARK   12  A    between atoms: C_14  and  C_17 
ROOT
ATOM      1  P   UNL d   1      16.603  -6.170  15.497  0.00  0.00     0.477 P 
ATOM      2  O   UNL d   1      15.478  -6.637  14.617  0.00  0.00    -0.227 OA
ENDROOT
BRANCH   1   3
ATOM      3  O   UNL d   1      16.650  -6.880  16.954  0.00  0.00    -0.292 OA
BRANCH   3   4
ATOM      4  C   UNL d   1      15.517  -6.831  17.806  0.00  0.00     0.181 C 
BRANCH   4   5
ATOM      5  C   UNL d   1      15.728  -7.810  18.955  0.00  0.00     0.042 C 
BRANCH   5   6
ATOM      6  C   UNL d   1      17.152  -8.341  19.049  0.00  0.00     0.116 C 
ATOM      7 CL   UNL d   1      17.244  -9.839  20.002  0.00  0.00    -0.130 Cl
ENDBRANCH   5   6
ENDBRANCH   4   5
ENDBRANCH   3   4
ENDBRANCH   1   3
BRANCH   1   8
ATOM      8  O   UNL d   1      16.594  -4.583  15.820  0.00  0.00    -0.292 OA
BRANCH   8   9
ATOM      9  C   UNL d   1      15.636  -3.767  15.169  0.00  0.00     0.181 C 
BRANCH   9  10
ATOM     10  C   UNL d   1      16.364  -2.633  14.457  0.00  0.00     0.042 C 
BRANCH  10  11
ATOM     11  C   UNL d   1      16.018  -2.519  12.978  0.00  0.00     0.116 C 
ATOM     12 CL   UNL d   1      15.498  -4.076  12.293  0.00  0.00    -0.130 Cl
ENDBRANCH  10  11
ENDBRANCH   9  10
ENDBRANCH   8   9
ENDBRANCH   1   8
BRANCH   1  13
ATOM     13  O   UNL d   1      18.083  -6.408  14.883  0.00  0.00    -0.292 OA
BRANCH  13  14
ATOM     14  C   UNL d   1      18.424  -5.754  13.672  0.00  0.00     0.181 C 
BRANCH  14  15
ATOM     15  C   UNL d   1      19.920  -5.467  13.677  0.00  0.00     0.042 C 
BRANCH  15  16
ATOM     16  C   UNL d   1      20.388  -4.647  12.483  0.00  0.00     0.116 C 
ATOM     17 CL   UNL d   1      19.559  -3.077  12.387  0.00  0.00    -0.130 Cl
ENDBRANCH  15  16
ENDBRANCH  14  15
ENDBRANCH  13  14
ENDBRANCH   1  13
TORSDOF 12
ENDMDL
MODEL 5
REMARK VINA RESULT:      -0.8      5.908      8.177
REMARK  12 active torsions:
REMARK  status: ('A' for Active; 'I' for Inactive)
REMARK    1  A    between atoms: P_4  and  O_5 
REMARK    2  A    between atoms: P_4  and  O_6 
REMARK    3  A    between atoms: P_4  and  O_7 
REMARK    4  A    between atoms: O_5  and  C_9 
REMARK    5  A    between atoms: O_6  and  C_10 
REMARK    6  A    between atoms: O_7  and  C_11 
REMARK    7  A    between atoms: C_9  and  C_12 
REMARK    8  A    between atoms: C_10  and  C_13 
REMARK    9  A    between atoms: C_11  and  C_14 
REMARK   10  A    between atoms: C_12  and  C_15 
REMARK   11  A    between atoms: C_13  and  C_16 
REMARK   12  A    between atoms: C_14  and  C_17 
ROOT
ATOM      1  P   UNL d   1      17.766  -1.902  10.504  0.00  0.00     0.477 P 
ATOM      2  O   UNL d   1      16.773  -0.785  10.659  0.00  0.00    -0.227 OA
ENDROOT
BRANCH   1   3
ATOM      3  O   UNL d   1      19.269  -1.415  10.143  0.00  0.00    -0.292 OA
BRANCH   3   4
ATOM      4  C   UNL d   1      19.524  -0.051   9.852  0.00  0.00     0.181 C 
BRANCH   4   5
ATOM      5  C   UNL d   1      19.778   0.089   8.356  0.00  0.00     0.042 C 
BRANCH   5   6
ATOM      6  C   UNL d   1      20.388   1.428   7.965  0.00  0.00     0.116 C 
ATOM      7 CL   UNL d   1      20.089   1.825   6.257  0.00  0.00    -0.130 Cl
ENDBRANCH   5   6
ENDBRANCH   4   5
ENDBRANCH   3   4
ENDBRANCH   1   3
BRANCH   1   8
ATOM      8  O   UNL d   1      17.400  -2.976   9.347  0.00  0.00    -0.292 OA
BRANCH   8   9
ATOM      9  C   UNL d   1      18.436  -3.428   8.493  0.00  0.00     0.181 C 
BRANCH   9  10
ATOM     10  C   UNL d   1      18.867  -4.820   8.941  0.00  0.00     0.042 C 
BRANCH  10  11
ATOM     11  C   UNL d   1      17.700  -5.748   9.255  0.00  0.00     0.116 C 
ATOM     12 CL   UNL d   1      17.613  -6.146  10.986  0.00  0.00    -0.130 Cl
ENDBRANCH  10  11
ENDBRANCH   9  10
ENDBRANCH   8   9
ENDBRANCH   1   8
BRANCH   1  13
ATOM     13  O   UNL d   1      17.946  -2.832  11.818  0.00  0.00    -0.292 OA
BRANCH  13  14
ATOM     14  C   UNL d   1      19.259  -3.144  12.250  0.00  0.00     0.181 C 
BRANCH  14  15
ATOM     15  C   UNL d   1      19.378  -2.813  13.732  0.00  0.00     0.042 C 
BRANCH  15  16
ATOM     16  C   UNL d   1      20.251  -1.599  14.018  0.00  0.00     0.116 C 
ATOM     17 CL   UNL d   1      19.320  -0.262  14.730  0.00  0.00    -0.130 Cl
ENDBRANCH  15  16
ENDBRANCH  14  15
ENDBRANCH  13  14
ENDBRANCH   1  13
TORSDOF 12
ENDMDL
MODEL 6
REMARK VINA RESULT:      -0.8      4.007      6.303
REMARK  12 active torsions:
REMARK  status: ('A' for Active; 'I' for Inactive)
REMARK    1  A    between atoms: P_4  and  O_5 
REMARK    2  A    between atoms: P_4  and  O_6 
REMARK    3  A    between atoms: P_4  and  O_7 
REMARK    4  A    between atoms: O_5  and  C_9 
REMARK    5  A    between atoms: O_6  and  C_10 
REMARK    6  A    between atoms: O_7  and  C_11 
REMARK    7  A    between atoms: C_9  and  C_12 
REMARK    8  A    between atoms: C_10  and  C_13 
REMARK    9  A    between atoms: C_11  and  C_14 
REMARK   10  A    between atoms: C_12  and  C_15 
REMARK   11  A    between atoms: C_13  and  C_16 
REMARK   12  A    between atoms: C_14  and  C_17 
ROOT
ATOM      1  P   UNL d   1      14.160  -8.401  16.353  0.00  0.00     0.477 P 
ATOM      2  O   UNL d   1      13.906  -9.732  15.705  0.00  0.00    -0.227 OA
ENDROOT
BRANCH   1   3
ATOM      3  O   UNL d   1      13.635  -8.291  17.883  0.00  0.00    -0.292 OA
BRANCH   3   4
ATOM      4  C   UNL d   1      14.566  -8.232  18.951  0.00  0.00     0.181 C 
BRANCH   4   5
ATOM      5  C   UNL d   1      14.864  -9.652  19.418  0.00  0.00     0.042 C 
BRANCH   5   6
ATOM      6  C   UNL d   1      16.351  -9.966  19.503  0.00  0.00     0.116 C 
ATOM      7 CL   UNL d   1      17.347  -8.492  19.473  0.00  0.00    -0.130 Cl
ENDBRANCH   5   6
ENDBRANCH   4   5
ENDBRANCH   3   4
ENDBRANCH   1   3
BRANCH   1   8
ATOM      8  O   UNL d   1      13.474  -7.141  15.600  0.00  0.00    -0.292 OA
BRANCH   8   9
ATOM      9  C   UNL d   1      12.218  -6.679  16.064  0.00  0.00     0.181 C 
BRANCH   9  10
ATOM     10  C   UNL d   1      11.122  -7.536  15.444  0.00  0.00     0.042 C 
BRANCH  10  11
ATOM     11  C   UNL d   1      10.108  -8.057  16.455  0.00  0.00     0.116 C 
ATOM     12 CL   UNL d   1      10.332  -7.324  18.060  0.00  0.00    -0.130 Cl
ENDBRANCH  10  11
ENDBRANCH   9  10
ENDBRANCH   8   9
ENDBRANCH   1   8
BRANCH   1  13
ATOM     13  O   UNL d   1      15.720  -7.973  16.428  0.00  0.00    -0.292 OA
BRANCH  13  14
ATOM     14  C   UNL d   1      16.130  -6.793  15.759  0.00  0.00     0.181 C 
BRANCH  14  15
ATOM     15  C   UNL d   1      17.496  -7.038  15.129  0.00  0.00     0.042 C 
BRANCH  15  16
ATOM     16  C   UNL d   1      18.614  -6.218  15.758  0.00  0.00     0.116 C 
ATOM     17 CL   UNL d   1      19.515  -7.147  16.978  0.00  0.00    -0.130 Cl
ENDBRANCH  15  16
ENDBRANCH  14  15
ENDBRANCH  13  14
ENDBRANCH   1  13
TORSDOF 12
ENDMDL
MODEL 7
REMARK VINA RESULT:      -0.8      5.375      7.467
REMARK  12 active torsions:
REMARK  status: ('A' for Active; 'I' for Inactive)
REMARK    1  A    between atoms: P_4  and  O_5 
REMARK    2  A    between atoms: P_4  and  O_6 
REMARK    3  A    between atoms: P_4  and  O_7 
REMARK    4  A    between atoms: O_5  and  C_9 
REMARK    5  A    between atoms: O_6  and  C_10 
REMARK    6  A    between atoms: O_7  and  C_11 
REMARK    7  A    between atoms: C_9  and  C_12 
REMARK    8  A    between atoms: C_10  and  C_13 
REMARK    9  A    between atoms: C_11  and  C_14 
REMARK   10  A    between atoms: C_12  and  C_15 
REMARK   11  A    between atoms: C_13  and  C_16 
REMARK   12  A    between atoms: C_14  and  C_17 
ROOT
ATOM      1  P   UNL d   1      14.068  -4.867  16.418  0.00  0.00     0.477 P 
ATOM      2  O   UNL d   1      14.123  -4.669  14.930  0.00  0.00    -0.227 OA
ENDROOT
BRANCH   1   3
ATOM      3  O   UNL d   1      12.642  -4.491  17.091  0.00  0.00    -0.292 OA
BRANCH   3   4
ATOM      4  C   UNL d   1      12.525  -4.385  18.500  0.00  0.00     0.181 C 
BRANCH   4   5
ATOM      5  C   UNL d   1      11.909  -3.033  18.839  0.00  0.00     0.042 C 
BRANCH   5   6
ATOM      6  C   UNL d   1      10.485  -2.867  18.327  0.00  0.00     0.116 C 
ATOM      7 CL   UNL d   1       9.370  -2.348  19.612  0.00  0.00    -0.130 Cl
ENDBRANCH   5   6
ENDBRANCH   4   5
ENDBRANCH   3   4
ENDBRANCH   1   3
BRANCH   1   8
ATOM      8  O   UNL d   1      15.151  -4.002  17.256  0.00  0.00    -0.292 OA
BRANCH   8   9
ATOM      9  C   UNL d   1      15.642  -2.802  16.685  0.00  0.00     0.181 C 
BRANCH   9  10
ATOM     10  C   UNL d   1      15.094  -1.622  17.480  0.00  0.00     0.042 C 
BRANCH  10  11
ATOM     11  C   UNL d   1      15.882  -1.321  18.748  0.00  0.00     0.116 C 
ATOM     12 CL   UNL d   1      15.240  -2.200  20.155  0.00  0.00    -0.130 Cl
ENDBRANCH  10  11
ENDBRANCH   9  10
ENDBRANCH   8   9
ENDBRANCH   1   8
BRANCH   1  13
ATOM     13  O   UNL d   1      14.358  -6.384  16.908  0.00  0.00    -0.292 OA
BRANCH  13  14
ATOM     14  C   UNL d   1      15.497  -6.626  17.716  0.00  0.00     0.181 C 
BRANCH  14  15
ATOM     15  C   UNL d   1      16.621  -7.151  16.832  0.00  0.00     0.042 C 
BRANCH  15  16
ATOM     16  C   UNL d   1      17.747  -7.820  17.609  0.00  0.00     0.116 C 
ATOM     17 CL   UNL d   1      19.347  -7.232  17.103  0.00  0.00    -0.130 Cl
ENDBRANCH  15  16
ENDBRANCH  14  15
ENDBRANCH  13  14
ENDBRANCH   1  13
TORSDOF 12
ENDMDL
MODEL 8
REMARK VINA RESULT:      -0.7      3.462      5.439
REMARK  12 active torsions:
REMARK  status: ('A' for Active; 'I' for Inactive)
REMARK    1  A    between atoms: P_4  and  O_5 
REMARK    2  A    between atoms: P_4  and  O_6 
REMARK    3  A    between atoms: P_4  and  O_7 
REMARK    4  A    between atoms: O_5  and  C_9 
REMARK    5  A    between atoms: O_6  and  C_10 
REMARK    6  A    between atoms: O_7  and  C_11 
REMARK    7  A    between atoms: C_9  and  C_12 
REMARK    8  A    between atoms: C_10  and  C_13 
REMARK    9  A    between atoms: C_11  and  C_14 
REMARK   10  A    between atoms: C_12  and  C_15 
REMARK   11  A    between atoms: C_13  and  C_16 
REMARK   12  A    between atoms: C_14  and  C_17 
ROOT
ATOM      1  P   UNL d   1      15.145  -7.944  15.694  0.00  0.00     0.477 P 
ATOM      2  O   UNL d   1      14.337  -7.340  14.581  0.00  0.00    -0.227 OA
ENDROOT
BRANCH   1   3
ATOM      3  O   UNL d   1      14.259  -8.562  16.903  0.00  0.00    -0.292 OA
BRANCH   3   4
ATOM      4  C   UNL d   1      13.163  -9.415  16.618  0.00  0.00     0.181 C 
BRANCH   4   5
ATOM      5  C   UNL d   1      13.527 -10.835  17.033  0.00  0.00     0.042 C 
BRANCH   5   6
ATOM      6  C   UNL d   1      14.427 -10.899  18.259  0.00  0.00     0.116 C 
ATOM      7 CL   UNL d   1      13.502 -11.180  19.752  0.00  0.00    -0.130 Cl
ENDBRANCH   5   6
ENDBRANCH   4   5
ENDBRANCH   3   4
ENDBRANCH   1   3
BRANCH   1   8
ATOM      8  O   UNL d   1      16.164  -6.918  16.423  0.00  0.00    -0.292 OA
BRANCH   8   9
ATOM      9  C   UNL d   1      17.430  -7.403  16.835  0.00  0.00     0.181 C 
BRANCH   9  10
ATOM     10  C   UNL d   1      18.514  -6.669  16.054  0.00  0.00     0.042 C 
BRANCH  10  11
ATOM     11  C   UNL d   1      19.929  -7.089  16.430  0.00  0.00     0.116 C 
ATOM     12 CL   UNL d   1      20.387  -8.634  15.678  0.00  0.00    -0.130 Cl
ENDBRANCH  10  11
ENDBRANCH   9  10
ENDBRANCH   8   9
ENDBRANCH   1   8
BRANCH   1  13
ATOM     13  O   UNL d   1      16.116  -9.159  15.241  0.00  0.00    -0.292 OA
BRANCH  13  14
ATOM     14  C   UNL d   1      16.164  -9.508  13.868  0.00  0.00     0.181 C 
BRANCH  14  15
ATOM     15  C   UNL d   1      17.295  -8.732  13.206  0.00  0.00     0.042 C 
BRANCH  15  16
ATOM     16  C   UNL d   1      18.433  -9.614  12.710  0.00  0.00     0.116 C 
ATOM     17 CL   UNL d   1      18.697 -11.018  13.769  0.00  0.00    -0.130 Cl
ENDBRANCH  15  16
ENDBRANCH  14  15
ENDBRANCH  13  14
ENDBRANCH   1  13
TORSDOF 12
ENDMDL
MODEL 9
REMARK VINA RESULT:      -0.7      3.368      4.088
REMARK  12 active torsions:
REMARK  status: ('A' for Active; 'I' for Inactive)
REMARK    1  A    between atoms: P_4  and  O_5 
REMARK    2  A    between atoms: P_4  and  O_6 
REMARK    3  A    between atoms: P_4  and  O_7 
REMARK    4  A    between atoms: O_5  and  C_9 
REMARK    5  A    between atoms: O_6  and  C_10 
REMARK    6  A    between atoms: O_7  and  C_11 
REMARK    7  A    between atoms: C_9  and  C_12 
REMARK    8  A    between atoms: C_10  and  C_13 
REMARK    9  A    between atoms: C_11  and  C_14 
REMARK   10  A    between atoms: C_12  and  C_15 
REMARK   11  A    between atoms: C_13  and  C_16 
REMARK   12  A    between atoms: C_14  and  C_17 
ROOT
ATOM      1  P   UNL d   1      16.116  -6.144  15.529  0.00  0.00     0.477 P 
ATOM      2  O   UNL d   1      16.349  -7.620  15.375  0.00  0.00    -0.227 OA
ENDROOT
BRANCH   1   3
ATOM      3  O   UNL d   1      15.258  -5.736  16.843  0.00  0.00    -0.292 OA
BRANCH   3   4
ATOM      4  C   UNL d   1      15.228  -6.598  17.969  0.00  0.00     0.181 C 
BRANCH   4   5
ATOM      5  C   UNL d   1      13.789  -7.037  18.210  0.00  0.00     0.042 C 
BRANCH   5   6
ATOM      6  C   UNL d   1      13.531  -7.526  19.629  0.00  0.00     0.116 C 
ATOM      7 CL   UNL d   1      11.804  -7.821  19.929  0.00  0.00    -0.130 Cl
ENDBRANCH   5   6
ENDBRANCH   4   5
ENDBRANCH   3   4
ENDBRANCH   1   3
BRANCH   1   8
ATOM      8  O   UNL d   1      15.322  -5.454  14.297  0.00  0.00    -0.292 OA
BRANCH   8   9
ATOM      9  C   UNL d   1      15.514  -5.975  12.994  0.00  0.00     0.181 C 
BRANCH   9  10
ATOM     10  C   UNL d   1      16.552  -5.121  12.274  0.00  0.00     0.042 C 
BRANCH  10  11
ATOM     11  C   UNL d   1      17.585  -5.934  11.505  0.00  0.00     0.116 C 
ATOM     12 CL   UNL d   1      18.007  -7.443  12.347  0.00  0.00    -0.130 Cl
ENDBRANCH  10  11
ENDBRANCH   9  10
ENDBRANCH   8   9
ENDBRANCH   1   8
BRANCH   1  13
ATOM     13  O   UNL d   1      17.465  -5.254  15.635  0.00  0.00    -0.292 OA
BRANCH  13  14
ATOM     14  C   UNL d   1      18.717  -5.918  15.593  0.00  0.00     0.181 C 
BRANCH  14  15
ATOM     15  C   UNL d   1      19.802  -4.897  15.276  0.00  0.00     0.042 C 
BRANCH  15  16
ATOM     16  C   UNL d   1      20.383  -5.038  13.876  0.00  0.00     0.116 C 
ATOM     17 CL   UNL d   1      20.044  -3.613  12.868  0.00  0.00    -0.130 Cl
ENDBRANCH  15  16
ENDBRANCH  14  15
ENDBRANCH  13  14
ENDBRANCH   1  13
TORSDOF 12
ENDMDL
