MODEL 1
REMARK VINA RESULT:      -1.8      0.000      0.000
REMARK  2 active torsions:
REMARK  status: ('A' for Active; 'I' for Inactive)
REMARK    1  A    between atoms: O_1  and  C_7 
REMARK    2  A    between atoms: O_2  and  C_20 
ROOT
ATOM      1  C   UNL d   1      16.924  -8.531  18.173  0.00  0.00    -0.014 C 
ATOM      2  C   UNL d   1      17.119 -10.023  17.839  0.00  0.00     0.001 C 
ATOM      3  C   UNL d   1      17.274 -10.262  16.338  0.00  0.00    -0.001 C 
ATOM      4  C   UNL d   1      18.542  -9.505  15.840  0.00  0.00     0.023 C 
ATOM      5  C   UNL d   1      16.738  -8.640  19.699  0.00  0.00     0.126 C 
ATOM      6  C   UNL d   1      18.181  -7.773  17.728  0.00  0.00     0.013 C 
ATOM      7  C   UNL d   1      15.982 -10.708  18.593  0.00  0.00     0.008 C 
ATOM      8  C   UNL d   1      18.492  -8.005  16.237  0.00  0.00     0.010 C 
ATOM      9  C   UNL d   1      15.831  -9.872  19.878  0.00  0.00     0.033 C 
ATOM     10  C   UNL d   1      17.411 -11.746  15.990  0.00  0.00     0.010 C 
ATOM     11  C   UNL d   1      15.677  -7.877  17.525  0.00  0.00     0.018 C 
ATOM     12  C   UNL d   1      18.800  -9.773  14.359  0.00  0.00    -0.047 A 
ATOM     13  C   UNL d   1      17.417 -11.925  14.475  0.00  0.00     0.039 C 
ATOM     14  C   UNL d   1      18.297 -10.940  13.744  0.00  0.00    -0.049 A 
ATOM     15  C   UNL d   1      19.615  -8.918  13.596  0.00  0.00     0.011 A 
ATOM     16  C   UNL d   1      18.573 -11.192  12.387  0.00  0.00     0.044 A 
ATOM     17  C   UNL d   1      19.888  -9.184  12.253  0.00  0.00     0.037 A 
ATOM     18  C   UNL d   1      19.363 -10.318  11.646  0.00  0.00     0.066 A 
ENDROOT
BRANCH   5  19
ATOM     19  O   UNL d   1      16.167  -7.480  20.272  0.00  0.00    -0.395 OA
ATOM     20  H   UNL d   1      16.418  -7.464  21.212  0.00  0.00     0.210 HD
ENDBRANCH   5  19
BRANCH  18  21
ATOM     21  O   UNL d   1      19.625 -10.577  10.338  0.00  0.00    -0.361 OA
ATOM     22  H   UNL d   1      19.486  -9.764   9.821  0.00  0.00     0.217 HD
ENDBRANCH  18  21
TORSDOF 2
ENDMDL
MODEL 2
REMARK VINA RESULT:      -1.6      2.245      2.946
REMARK  2 active torsions:
REMARK  status: ('A' for Active; 'I' for Inactive)
REMARK    1  A    between atoms: O_1  and  C_7 
REMARK    2  A    between atoms: O_2  and  C_20 
ROOT
ATOM      1  C   UNL d   1      17.590  -7.804  16.817  0.00  0.00    -0.014 C 
ATOM      2  C   UNL d   1      17.633  -8.988  15.830  0.00  0.00     0.001 C 
ATOM      3  C   UNL d   1      17.616  -8.526  14.373  0.00  0.00    -0.001 C 
ATOM      4  C   UNL d   1      18.883  -7.656  14.111  0.00  0.00     0.023 C 
ATOM      5  C   UNL d   1      17.551  -8.587  18.143  0.00  0.00     0.126 C 
ATOM      6  C   UNL d   1      18.851  -6.958  16.603  0.00  0.00     0.013 C 
ATOM      7  C   UNL d   1      16.528  -9.912  16.335  0.00  0.00     0.008 C 
ATOM      8  C   UNL d   1      18.991  -6.497  15.139  0.00  0.00     0.010 C 
ATOM      9  C   UNL d   1      16.573  -9.744  17.865  0.00  0.00     0.033 C 
ATOM     10  C   UNL d   1      17.602  -9.695  13.387  0.00  0.00     0.010 C 
ATOM     11  C   UNL d   1      16.339  -6.898  16.689  0.00  0.00     0.018 C 
ATOM     12  C   UNL d   1      18.969  -7.232  12.647  0.00  0.00    -0.047 A 
ATOM     13  C   UNL d   1      17.441  -9.169  11.963  0.00  0.00     0.039 C 
ATOM     14  C   UNL d   1      18.317  -7.982  11.644  0.00  0.00    -0.049 A 
ATOM     15  C   UNL d   1      19.767  -6.145  12.251  0.00  0.00     0.011 A 
ATOM     16  C   UNL d   1      18.434  -7.600  10.295  0.00  0.00     0.044 A 
ATOM     17  C   UNL d   1      19.882  -5.780  10.908  0.00  0.00     0.037 A 
ATOM     18  C   UNL d   1      19.212  -6.504   9.930  0.00  0.00     0.066 A 
ENDROOT
BRANCH   5  19
ATOM     19  O   UNL d   1      17.133  -7.798  19.240  0.00  0.00    -0.395 OA
ATOM     20  H   UNL d   1      16.839  -6.940  18.887  0.00  0.00     0.210 HD
ENDBRANCH   5  19
BRANCH  18  21
ATOM     21  O   UNL d   1      19.319  -6.150   8.622  0.00  0.00    -0.361 OA
ATOM     22  H   UNL d   1      18.847  -5.310   8.482  0.00  0.00     0.217 HD
ENDBRANCH  18  21
TORSDOF 2
ENDMDL
MODEL 3
REMARK VINA RESULT:      -1.5      3.598      4.493
REMARK  2 active torsions:
REMARK  status: ('A' for Active; 'I' for Inactive)
REMARK    1  A    between atoms: O_1  and  C_7 
REMARK    2  A    between atoms: O_2  and  C_20 
ROOT
ATOM      1  C   UNL d   1      14.729  -9.588  18.813  0.00  0.00    -0.014 C 
ATOM      2  C   UNL d   1      16.153  -9.045  19.041  0.00  0.00     0.001 C 
ATOM      3  C   UNL d   1      16.718  -8.363  17.795  0.00  0.00    -0.001 C 
ATOM      4  C   UNL d   1      15.810  -7.148  17.437  0.00  0.00     0.023 C 
ATOM      5  C   UNL d   1      14.491 -10.248  20.185  0.00  0.00     0.126 C 
ATOM      6  C   UNL d   1      13.810  -8.400  18.501  0.00  0.00     0.013 C 
ATOM      7  C   UNL d   1      16.895 -10.236  19.643  0.00  0.00     0.008 C 
ATOM      8  C   UNL d   1      14.324  -7.577  17.303  0.00  0.00     0.010 C 
ATOM      9  C   UNL d   1      15.830 -10.943  20.501  0.00  0.00     0.033 C 
ATOM     10  C   UNL d   1      18.153  -7.871  17.993  0.00  0.00     0.010 C 
ATOM     11  C   UNL d   1      14.607 -10.639  17.681  0.00  0.00     0.018 C 
ATOM     12  C   UNL d   1      16.369  -6.372  16.247  0.00  0.00    -0.047 A 
ATOM     13  C   UNL d   1      18.702  -7.333  16.675  0.00  0.00     0.039 C 
ATOM     14  C   UNL d   1      17.742  -6.439  15.929  0.00  0.00    -0.049 A 
ATOM     15  C   UNL d   1      15.554  -5.506  15.497  0.00  0.00     0.011 A 
ATOM     16  C   UNL d   1      18.249  -5.690  14.851  0.00  0.00     0.044 A 
ATOM     17  C   UNL d   1      16.071  -4.762  14.434  0.00  0.00     0.037 A 
ATOM     18  C   UNL d   1      17.418  -4.858  14.108  0.00  0.00     0.066 A 
ENDROOT
BRANCH   5  19
ATOM     19  O   UNL d   1      13.413 -11.163  20.180  0.00  0.00    -0.395 OA
ATOM     20  H   UNL d   1      12.596 -10.650  20.051  0.00  0.00     0.210 HD
ENDBRANCH   5  19
BRANCH  18  21
ATOM     21  O   UNL d   1      17.924  -4.137  13.072  0.00  0.00    -0.361 OA
ATOM     22  H   UNL d   1      17.301  -3.422  12.851  0.00  0.00     0.217 HD
ENDBRANCH  18  21
TORSDOF 2
ENDMDL
MODEL 4
REMARK VINA RESULT:      -1.4      7.459     10.689
REMARK  2 active torsions:
REMARK  status: ('A' for Active; 'I' for Inactive)
REMARK    1  A    between atoms: O_1  and  C_7 
REMARK    2  A    between atoms: O_2  and  C_20 
ROOT
ATOM      1  C   UNL d   1      17.335  -2.926   9.182  0.00  0.00    -0.014 C 
ATOM      2  C   UNL d   1      18.399  -1.845   9.458  0.00  0.00     0.001 C 
ATOM      3  C   UNL d   1      18.517  -1.519  10.947  0.00  0.00    -0.001 C 
ATOM      4  C   UNL d   1      18.956  -2.808  11.706  0.00  0.00     0.023 C 
ATOM      5  C   UNL d   1      17.417  -2.968   7.644  0.00  0.00     0.126 C 
ATOM      6  C   UNL d   1      17.770  -4.216   9.887  0.00  0.00     0.013 C 
ATOM      7  C   UNL d   1      18.041  -0.734   8.475  0.00  0.00     0.008 C 
ATOM      8  C   UNL d   1      18.005  -3.995  11.394  0.00  0.00     0.010 C 
ATOM      9  C   UNL d   1      17.523  -1.486   7.235  0.00  0.00     0.033 C 
ATOM     10  C   UNL d   1      19.531  -0.408  11.226  0.00  0.00     0.010 C 
ATOM     11  C   UNL d   1      15.900  -2.555   9.635  0.00  0.00     0.018 C 
ATOM     12  C   UNL d   1      19.174  -2.527  13.191  0.00  0.00    -0.047 A 
ATOM     13  C   UNL d   1      19.495  -0.035  12.706  0.00  0.00     0.039 C 
ATOM     14  C   UNL d   1      19.469  -1.221  13.638  0.00  0.00    -0.049 A 
ATOM     15  C   UNL d   1      19.177  -3.569  14.135  0.00  0.00     0.011 A 
ATOM     16  C   UNL d   1      19.703  -0.984  15.005  0.00  0.00     0.044 A 
ATOM     17  C   UNL d   1      19.419  -3.322  15.488  0.00  0.00     0.037 A 
ATOM     18  C   UNL d   1      19.677  -2.029  15.924  0.00  0.00     0.066 A 
ENDROOT
BRANCH   5  19
ATOM     19  O   UNL d   1      16.300  -3.597   7.047  0.00  0.00    -0.395 OA
ATOM     20  H   UNL d   1      16.136  -4.424   7.534  0.00  0.00     0.210 HD
ENDBRANCH   5  19
BRANCH  18  21
ATOM     21  O   UNL d   1      19.910  -1.785  17.241  0.00  0.00    -0.361 OA
ATOM     22  H   UNL d   1      20.226  -0.870  17.341  0.00  0.00     0.217 HD
ENDBRANCH  18  21
TORSDOF 2
ENDMDL
MODEL 5
REMARK VINA RESULT:      -1.3      2.693      3.755
REMARK  2 active torsions:
REMARK  status: ('A' for Active; 'I' for Inactive)
REMARK    1  A    between atoms: O_1  and  C_7 
REMARK    2  A    between atoms: O_2  and  C_20 
ROOT
ATOM      1  C   UNL d   1      16.662  -8.873  16.824  0.00  0.00    -0.014 C 
ATOM      2  C   UNL d   1      17.003  -9.875  17.945  0.00  0.00     0.001 C 
ATOM      3  C   UNL d   1      17.034 -11.317  17.439  0.00  0.00    -0.001 C 
ATOM      4  C   UNL d   1      18.144 -11.440  16.351  0.00  0.00     0.023 C 
ATOM      5  C   UNL d   1      16.645  -7.572  17.651  0.00  0.00     0.126 C 
ATOM      6  C   UNL d   1      17.766  -8.949  15.763  0.00  0.00     0.013 C 
ATOM      7  C   UNL d   1      16.040  -9.496  19.066  0.00  0.00     0.008 C 
ATOM      8  C   UNL d   1      17.952 -10.383  15.231  0.00  0.00     0.010 C 
ATOM      9  C   UNL d   1      15.917  -7.965  18.951  0.00  0.00     0.033 C 
ATOM     10  C   UNL d   1      17.316 -12.325  18.555  0.00  0.00     0.010 C 
ATOM     11  C   UNL d   1      15.286  -9.098  16.148  0.00  0.00     0.018 C 
ATOM     12  C   UNL d   1      18.283 -12.881  15.864  0.00  0.00    -0.047 A 
ATOM     13  C   UNL d   1      17.191 -13.746  18.012  0.00  0.00     0.039 C 
ATOM     14  C   UNL d   1      17.867 -13.956  16.679  0.00  0.00    -0.049 A 
ATOM     15  C   UNL d   1      18.906 -13.177  14.640  0.00  0.00     0.011 A 
ATOM     16  C   UNL d   1      18.033 -15.279  16.232  0.00  0.00     0.044 A 
ATOM     17  C   UNL d   1      19.073 -14.495  14.211  0.00  0.00     0.037 A 
ATOM     18  C   UNL d   1      18.633 -15.547  15.004  0.00  0.00     0.066 A 
ENDROOT
BRANCH   5  19
ATOM     19  O   UNL d   1      15.997  -6.504  16.989  0.00  0.00    -0.395 OA
ATOM     20  H   UNL d   1      16.682  -5.866  16.724  0.00  0.00     0.210 HD
ENDBRANCH   5  19
BRANCH  18  21
ATOM     21  O   UNL d   1      18.792 -16.832  14.588  0.00  0.00    -0.361 OA
ATOM     22  H   UNL d   1      18.040 -17.075  14.020  0.00  0.00     0.217 HD
ENDBRANCH  18  21
TORSDOF 2
ENDMDL
MODEL 6
REMARK VINA RESULT:      -1.3      2.078      2.703
REMARK  2 active torsions:
REMARK  status: ('A' for Active; 'I' for Inactive)
REMARK    1  A    between atoms: O_1  and  C_7 
REMARK    2  A    between atoms: O_2  and  C_20 
ROOT
ATOM      1  C   UNL d   1      16.360  -8.980  17.330  0.00  0.00    -0.014 C 
ATOM      2  C   UNL d   1      17.183 -10.222  17.724  0.00  0.00     0.001 C 
ATOM      3  C   UNL d   1      16.997 -11.374  16.736  0.00  0.00    -0.001 C 
ATOM      4  C   UNL d   1      17.493 -10.913  15.332  0.00  0.00     0.023 C 
ATOM      5  C   UNL d   1      16.706  -8.065  18.521  0.00  0.00     0.126 C 
ATOM      6  C   UNL d   1      16.863  -8.485  15.969  0.00  0.00     0.013 C 
ATOM      7  C   UNL d   1      16.830 -10.433  19.193  0.00  0.00     0.008 C 
ATOM      8  C   UNL d   1      16.802  -9.592  14.898  0.00  0.00     0.010 C 
ATOM      9  C   UNL d   1      16.652  -9.004  19.742  0.00  0.00     0.033 C 
ATOM     10  C   UNL d   1      17.765 -12.631  17.148  0.00  0.00     0.010 C 
ATOM     11  C   UNL d   1      14.829  -9.211  17.257  0.00  0.00     0.018 C 
ATOM     12  C   UNL d   1      17.412 -12.050  14.316  0.00  0.00    -0.047 A 
ATOM     13  C   UNL d   1      17.423 -13.780  16.203  0.00  0.00     0.039 C 
ATOM     14  C   UNL d   1      17.422 -13.395  14.743  0.00  0.00    -0.049 A 
ATOM     15  C   UNL d   1      17.415 -11.791  12.935  0.00  0.00     0.011 A 
ATOM     16  C   UNL d   1      17.382 -14.432  13.794  0.00  0.00     0.044 A 
ATOM     17  C   UNL d   1      17.383 -12.829  12.002  0.00  0.00     0.037 A 
ATOM     18  C   UNL d   1      17.362 -14.150  12.431  0.00  0.00     0.066 A 
ENDROOT
BRANCH   5  19
ATOM     19  O   UNL d   1      15.817  -6.975  18.658  0.00  0.00    -0.395 OA
ATOM     20  H   UNL d   1      15.483  -6.983  19.572  0.00  0.00     0.210 HD
ENDBRANCH   5  19
BRANCH  18  21
ATOM     21  O   UNL d   1      17.329 -15.164  11.525  0.00  0.00    -0.361 OA
ATOM     22  H   UNL d   1      17.233 -16.008  12.000  0.00  0.00     0.217 HD
ENDBRANCH  18  21
TORSDOF 2
ENDMDL
MODEL 7
REMARK VINA RESULT:      -1.3      3.546      5.584
REMARK  2 active torsions:
REMARK  status: ('A' for Active; 'I' for Inactive)
REMARK    1  A    between atoms: O_1  and  C_7 
REMARK    2  A    between atoms: O_2  and  C_20 
ROOT
ATOM      1  C   UNL d   1      15.954 -10.241  18.630  0.00  0.00    -0.014 C 
ATOM      2  C   UNL d   1      16.860  -9.691  17.511  0.00  0.00     0.001 C 
ATOM      3  C   UNL d   1      16.216  -8.518  16.772  0.00  0.00    -0.001 C 
ATOM      4  C   UNL d   1      15.976  -7.360  17.787  0.00  0.00     0.023 C 
ATOM      5  C   UNL d   1      16.835 -11.410  19.112  0.00  0.00     0.126 C 
ATOM      6  C   UNL d   1      15.739  -9.127  19.662  0.00  0.00     0.013 C 
ATOM      7  C   UNL d   1      17.259 -10.940  16.730  0.00  0.00     0.008 C 
ATOM      8  C   UNL d   1      15.166  -7.851  19.017  0.00  0.00     0.010 C 
ATOM      9  C   UNL d   1      17.372 -12.033  17.809  0.00  0.00     0.033 C 
ATOM     10  C   UNL d   1      17.084  -8.001  15.622  0.00  0.00     0.010 C 
ATOM     11  C   UNL d   1      14.576 -10.766  18.151  0.00  0.00     0.018 C 
ATOM     12  C   UNL d   1      15.410  -6.124  17.091  0.00  0.00    -0.047 A 
ATOM     13  C   UNL d   1      16.324  -6.933  14.841  0.00  0.00     0.039 C 
ATOM     14  C   UNL d   1      15.621  -5.920  15.710  0.00  0.00    -0.049 A 
ATOM     15  C   UNL d   1      14.747  -5.120  17.818  0.00  0.00     0.011 A 
ATOM     16  C   UNL d   1      15.124  -4.759  15.090  0.00  0.00     0.044 A 
ATOM     17  C   UNL d   1      14.266  -3.968  17.192  0.00  0.00     0.037 A 
ATOM     18  C   UNL d   1      14.450  -3.789  15.827  0.00  0.00     0.066 A 
ENDROOT
BRANCH   5  19
ATOM     19  O   UNL d   1      16.126 -12.353  19.891  0.00  0.00    -0.395 OA
ATOM     20  H   UNL d   1      15.882 -11.918  20.726  0.00  0.00     0.210 HD
ENDBRANCH   5  19
BRANCH  18  21
ATOM     21  O   UNL d   1      13.980  -2.670  15.214  0.00  0.00    -0.361 OA
ATOM     22  H   UNL d   1      13.797  -1.994  15.890  0.00  0.00     0.217 HD
ENDBRANCH  18  21
TORSDOF 2
ENDMDL
MODEL 8
REMARK VINA RESULT:      -1.3      6.462      9.510
REMARK  2 active torsions:
REMARK  status: ('A' for Active; 'I' for Inactive)
REMARK    1  A    between atoms: O_1  and  C_7 
REMARK    2  A    between atoms: O_2  and  C_20 
ROOT
ATOM      1  C   UNL d   1      15.379  -4.000  15.167  0.00  0.00    -0.014 C 
ATOM      2  C   UNL d   1      14.550  -3.209  16.198  0.00  0.00     0.001 C 
ATOM      3  C   UNL d   1      15.420  -2.616  17.306  0.00  0.00    -0.001 C 
ATOM      4  C   UNL d   1      16.435  -1.621  16.665  0.00  0.00     0.023 C 
ATOM      5  C   UNL d   1      14.238  -4.503  14.262  0.00  0.00     0.126 C 
ATOM      6  C   UNL d   1      16.357  -3.028  14.494  0.00  0.00     0.013 C 
ATOM      7  C   UNL d   1      13.425  -4.174  16.566  0.00  0.00     0.008 C 
ATOM      8  C   UNL d   1      17.241  -2.300  15.524  0.00  0.00     0.010 C 
ATOM      9  C   UNL d   1      13.135  -4.924  15.252  0.00  0.00     0.033 C 
ATOM     10  C   UNL d   1      14.600  -1.877  18.365  0.00  0.00     0.010 C 
ATOM     11  C   UNL d   1      16.170  -5.198  15.752  0.00  0.00     0.018 C 
ATOM     12  C   UNL d   1      17.280  -0.929  17.732  0.00  0.00    -0.047 A 
ATOM     13  C   UNL d   1      15.509  -1.436  19.509  0.00  0.00     0.039 C 
ATOM     14  C   UNL d   1      16.808  -0.815  19.057  0.00  0.00    -0.049 A 
ATOM     15  C   UNL d   1      18.501  -0.314  17.405  0.00  0.00     0.011 A 
ATOM     16  C   UNL d   1      17.582  -0.144  20.021  0.00  0.00     0.044 A 
ATOM     17  C   UNL d   1      19.256   0.357  18.369  0.00  0.00     0.037 A 
ATOM     18  C   UNL d   1      18.799   0.438  19.679  0.00  0.00     0.066 A 
ENDROOT
BRANCH   5  19
ATOM     19  O   UNL d   1      14.626  -5.572  13.423  0.00  0.00    -0.395 OA
ATOM     20  H   UNL d   1      14.708  -6.366  13.981  0.00  0.00     0.210 HD
ENDBRANCH   5  19
BRANCH  18  21
ATOM     21  O   UNL d   1      19.534   1.088  20.620  0.00  0.00    -0.361 OA
ATOM     22  H   UNL d   1      20.273   0.517  20.894  0.00  0.00     0.217 HD
ENDBRANCH  18  21
TORSDOF 2
ENDMDL
MODEL 9
REMARK VINA RESULT:      -1.2      9.153     13.965
REMARK  2 active torsions:
REMARK  status: ('A' for Active; 'I' for Inactive)
REMARK    1  A    between atoms: O_1  and  C_7 
REMARK    2  A    between atoms: O_2  and  C_20 
ROOT
ATOM      1  C   UNL d   1      18.163  -7.733   1.600  0.00  0.00    -0.014 C 
ATOM      2  C   UNL d   1      19.013  -6.459   1.770  0.00  0.00     0.001 C 
ATOM      3  C   UNL d   1      18.966  -5.919   3.199  0.00  0.00    -0.001 C 
ATOM      4  C   UNL d   1      19.551  -6.999   4.159  0.00  0.00     0.023 C 
ATOM      5  C   UNL d   1      18.365  -7.968   0.091  0.00  0.00     0.126 C 
ATOM      6  C   UNL d   1      18.750  -8.822   2.507  0.00  0.00     0.013 C 
ATOM      7  C   UNL d   1      18.553  -5.568   0.619  0.00  0.00     0.008 C 
ATOM      8  C   UNL d   1      18.832  -8.363   3.975  0.00  0.00     0.010 C 
ATOM      9  C   UNL d   1      18.259  -6.559  -0.524  0.00  0.00     0.033 C 
ATOM     10  C   UNL d   1      19.761  -4.622   3.365  0.00  0.00     0.010 C 
ATOM     11  C   UNL d   1      16.657  -7.557   1.921  0.00  0.00     0.018 C 
ATOM     12  C   UNL d   1      19.609  -6.487   5.597  0.00  0.00    -0.047 A 
ATOM     13  C   UNL d   1      19.555  -4.065   4.770  0.00  0.00     0.039 C 
ATOM     14  C   UNL d   1      19.653  -5.102   5.863  0.00  0.00    -0.049 A 
ATOM     15  C   UNL d   1      19.711  -7.376   6.681  0.00  0.00     0.011 A 
ATOM     16  C   UNL d   1      19.742  -4.645   7.191  0.00  0.00     0.044 A 
ATOM     17  C   UNL d   1      19.808  -6.910   7.994  0.00  0.00     0.037 A 
ATOM     18  C   UNL d   1      19.818  -5.545   8.250  0.00  0.00     0.066 A 
ENDROOT
BRANCH   5  19
ATOM     19  O   UNL d   1      17.414  -8.855  -0.464  0.00  0.00    -0.395 OA
ATOM     20  H   UNL d   1      16.583  -8.361  -0.573  0.00  0.00     0.210 HD
ENDBRANCH   5  19
BRANCH  18  21
ATOM     21  O   UNL d   1      19.910  -5.089   9.527  0.00  0.00    -0.361 OA
ATOM     22  H   UNL d   1      19.495  -5.737  10.124  0.00  0.00     0.217 HD
ENDBRANCH  18  21
TORSDOF 2
ENDMDL
