MODEL 1
REMARK VINA RESULT:      -1.5      0.000      0.000
REMARK  2 active torsions:
REMARK  status: ('A' for Active; 'I' for Inactive)
REMARK    1  A    between atoms: O_11  and  C_12 
REMARK    2  A    between atoms: O_11  and  C_13 
ROOT
ATOM      1  O   UNL d   1      17.240  -4.591  15.610  0.00  0.00    -0.305 OA
ENDROOT
BRANCH   1   2
ATOM      2  C   UNL d   1      17.313  -5.960  15.781  0.00  0.00     0.113 A 
ATOM      3  C   UNL d   1      16.267  -6.627  16.402  0.00  0.00     0.065 A 
ATOM      4 BR   UNL d   1      14.766  -5.595  16.991  0.00  0.00    -0.046 Br
ATOM      5  C   UNL d   1      16.343  -8.009  16.577  0.00  0.00     0.050 A 
ATOM      6 BR   UNL d   1      14.892  -8.930  17.441  0.00  0.00    -0.048 Br
ATOM      7  C   UNL d   1      17.463  -8.709  16.130  0.00  0.00     0.048 A 
ATOM      8 BR   UNL d   1      17.568 -10.616  16.375  0.00  0.00    -0.048 Br
ATOM      9  C   UNL d   1      18.508  -8.027  15.508  0.00  0.00     0.050 A 
ATOM     10 BR   UNL d   1      20.062  -8.973  14.884  0.00  0.00    -0.048 Br
ATOM     11  C   UNL d   1      18.434  -6.645  15.333  0.00  0.00     0.065 A 
ATOM     12 BR   UNL d   1      19.825  -5.638  14.488  0.00  0.00    -0.046 Br
ENDBRANCH   1   2
BRANCH   1  13
ATOM     13  C   UNL d   1      17.440  -4.102  14.350  0.00  0.00     0.113 A 
ATOM     14  C   UNL d   1      16.712  -4.616  13.277  0.00  0.00     0.065 A 
ATOM     15 BR   UNL d   1      15.450  -6.007  13.653  0.00  0.00    -0.046 Br
ATOM     16  C   UNL d   1      16.919  -4.118  11.991  0.00  0.00     0.050 A 
ATOM     17 BR   UNL d   1      15.907  -4.844  10.526  0.00  0.00    -0.048 Br
ATOM     18  C   UNL d   1      17.855  -3.107  11.777  0.00  0.00     0.048 A 
ATOM     19 BR   UNL d   1      18.142  -2.422  10.000  0.00  0.00    -0.048 Br
ATOM     20  C   UNL d   1      18.583  -2.592  12.849  0.00  0.00     0.050 A 
ATOM     21 BR   UNL d   1      19.877  -1.197  12.575  0.00  0.00    -0.048 Br
ATOM     22  C   UNL d   1      18.377  -3.090  14.135  0.00  0.00     0.065 A 
ATOM     23 BR   UNL d   1      19.336  -2.436  15.658  0.00  0.00    -0.046 Br
ENDBRANCH   1  13
TORSDOF 2
ENDMDL
MODEL 2
REMARK VINA RESULT:      -1.5      0.220      2.593
REMARK  2 active torsions:
REMARK  status: ('A' for Active; 'I' for Inactive)
REMARK    1  A    between atoms: O_11  and  C_12 
REMARK    2  A    between atoms: O_11  and  C_13 
ROOT
ATOM      1  O   UNL d   1      17.074  -4.687  15.602  0.00  0.00    -0.305 OA
ENDROOT
BRANCH   1   2
ATOM      2  C   UNL d   1      17.154  -6.049  15.825  0.00  0.00     0.113 A 
ATOM      3  C   UNL d   1      16.092  -6.705  16.429  0.00  0.00     0.065 A 
ATOM      4 BR   UNL d   1      14.560  -5.668  16.927  0.00  0.00    -0.046 Br
ATOM      5  C   UNL d   1      16.174  -8.079  16.656  0.00  0.00     0.050 A 
ATOM      6 BR   UNL d   1      14.701  -8.984  17.498  0.00  0.00    -0.048 Br
ATOM      7  C   UNL d   1      17.317  -8.782  16.276  0.00  0.00     0.048 A 
ATOM      8 BR   UNL d   1      17.431 -10.677  16.591  0.00  0.00    -0.048 Br
ATOM      9  C   UNL d   1      18.377  -8.111  15.668  0.00  0.00     0.050 A 
ATOM     10 BR   UNL d   1      19.962  -9.061  15.135  0.00  0.00    -0.048 Br
ATOM     11  C   UNL d   1      18.296  -6.736  15.441  0.00  0.00     0.065 A 
ATOM     12 BR   UNL d   1      19.709  -5.745  14.613  0.00  0.00    -0.046 Br
ENDBRANCH   1   2
BRANCH   1  13
ATOM     13  C   UNL d   1      17.310  -4.241  14.332  0.00  0.00     0.113 A 
ATOM     14  C   UNL d   1      18.244  -3.228  14.110  0.00  0.00     0.065 A 
ATOM     15 BR   UNL d   1      19.153  -2.517  15.638  0.00  0.00    -0.046 Br
ATOM     16  C   UNL d   1      18.482  -2.771  12.815  0.00  0.00     0.050 A 
ATOM     17 BR   UNL d   1      19.771  -1.373  12.532  0.00  0.00    -0.048 Br
ATOM     18  C   UNL d   1      17.787  -3.326  11.740  0.00  0.00     0.048 A 
ATOM     19 BR   UNL d   1      18.115  -2.692   9.952  0.00  0.00    -0.048 Br
ATOM     20  C   UNL d   1      16.854  -4.337  11.962  0.00  0.00     0.050 A 
ATOM     21 BR   UNL d   1      15.885  -5.116  10.494  0.00  0.00    -0.048 Br
ATOM     22  C   UNL d   1      16.614  -4.795  13.257  0.00  0.00     0.065 A 
ATOM     23 BR   UNL d   1      15.350  -6.180  13.643  0.00  0.00    -0.046 Br
ENDBRANCH   1  13
TORSDOF 2
ENDMDL
MODEL 3
REMARK VINA RESULT:      -1.3      3.093      6.001
REMARK  2 active torsions:
REMARK  status: ('A' for Active; 'I' for Inactive)
REMARK    1  A    between atoms: O_11  and  C_12 
REMARK    2  A    between atoms: O_11  and  C_13 
ROOT
ATOM      1  O   UNL d   1      14.565  -5.122  15.242  0.00  0.00    -0.305 OA
ENDROOT
BRANCH   1   2
ATOM      2  C   UNL d   1      14.414  -4.124  16.186  0.00  0.00     0.113 A 
ATOM      3  C   UNL d   1      13.226  -4.030  16.896  0.00  0.00     0.065 A 
ATOM      4 BR   UNL d   1      11.848  -5.305  16.517  0.00  0.00    -0.046 Br
ATOM      5  C   UNL d   1      13.072  -3.020  17.847  0.00  0.00     0.050 A 
ATOM      6 BR   UNL d   1      11.422  -2.891  18.826  0.00  0.00    -0.048 Br
ATOM      7  C   UNL d   1      14.109  -2.117  18.078  0.00  0.00     0.048 A 
ATOM      8 BR   UNL d   1      13.896  -0.723  19.389  0.00  0.00    -0.048 Br
ATOM      9  C   UNL d   1      15.299  -2.222  17.359  0.00  0.00     0.050 A 
ATOM     10 BR   UNL d   1      16.741  -0.987  17.663  0.00  0.00    -0.048 Br
ATOM     11  C   UNL d   1      15.453  -3.231  16.407  0.00  0.00     0.065 A 
ATOM     12 BR   UNL d   1      17.054  -3.441  15.380  0.00  0.00    -0.046 Br
ENDBRANCH   1   2
BRANCH   1  13
ATOM     13  C   UNL d   1      15.673  -5.915  15.336  0.00  0.00     0.113 A 
ATOM     14  C   UNL d   1      15.971  -6.561  16.536  0.00  0.00     0.065 A 
ATOM     15 BR   UNL d   1      14.775  -6.283  18.007  0.00  0.00    -0.046 Br
ATOM     16  C   UNL d   1      17.103  -7.369  16.631  0.00  0.00     0.050 A 
ATOM     17 BR   UNL d   1      17.496  -8.247  18.296  0.00  0.00    -0.048 Br
ATOM     18  C   UNL d   1      17.939  -7.531  15.527  0.00  0.00     0.048 A 
ATOM     19 BR   UNL d   1      19.504  -8.644  15.660  0.00  0.00    -0.048 Br
ATOM     20  C   UNL d   1      17.642  -6.886  14.327  0.00  0.00     0.050 A 
ATOM     21 BR   UNL d   1      18.781  -7.097  12.792  0.00  0.00    -0.048 Br
ATOM     22  C   UNL d   1      16.510  -6.078  14.231  0.00  0.00     0.065 A 
ATOM     23 BR   UNL d   1      16.034  -5.160  12.619  0.00  0.00    -0.046 Br
ENDBRANCH   1  13
TORSDOF 2
ENDMDL
MODEL 4
REMARK VINA RESULT:      -1.3      1.633      6.291
REMARK  2 active torsions:
REMARK  status: ('A' for Active; 'I' for Inactive)
REMARK    1  A    between atoms: O_11  and  C_12 
REMARK    2  A    between atoms: O_11  and  C_13 
ROOT
ATOM      1  O   UNL d   1      15.637  -5.275  13.625  0.00  0.00    -0.305 OA
ENDROOT
BRANCH   1   2
ATOM      2  C   UNL d   1      16.466  -4.273  13.154  0.00  0.00     0.113 A 
ATOM      3  C   UNL d   1      16.881  -3.270  14.017  0.00  0.00     0.065 A 
ATOM      4 BR   UNL d   1      16.270  -3.333  15.831  0.00  0.00    -0.046 Br
ATOM      5  C   UNL d   1      17.715  -2.258  13.541  0.00  0.00     0.050 A 
ATOM      6 BR   UNL d   1      18.286  -0.866  14.739  0.00  0.00    -0.048 Br
ATOM      7  C   UNL d   1      18.126  -2.262  12.208  0.00  0.00     0.048 A 
ATOM      8 BR   UNL d   1      19.275  -0.864  11.551  0.00  0.00    -0.048 Br
ATOM      9  C   UNL d   1      17.701  -3.276  11.351  0.00  0.00     0.050 A 
ATOM     10 BR   UNL d   1      18.256  -3.300   9.510  0.00  0.00    -0.048 Br
ATOM     11  C   UNL d   1      16.866  -4.288  11.826  0.00  0.00     0.065 A 
ATOM     12 BR   UNL d   1      16.242  -5.715  10.713  0.00  0.00    -0.046 Br
ENDBRANCH   1   2
BRANCH   1  13
ATOM     13  C   UNL d   1      16.036  -5.950  14.743  0.00  0.00     0.113 A 
ATOM     14  C   UNL d   1      15.171  -6.071  15.832  0.00  0.00     0.065 A 
ATOM     15 BR   UNL d   1      13.442  -5.262  15.679  0.00  0.00    -0.046 Br
ATOM     16  C   UNL d   1      15.580  -6.758  16.974  0.00  0.00     0.050 A 
ATOM     17 BR   UNL d   1      14.374  -6.911  18.463  0.00  0.00    -0.048 Br
ATOM     18  C   UNL d   1      16.854  -7.325  17.029  0.00  0.00     0.048 A 
ATOM     19 BR   UNL d   1      17.418  -8.270  18.608  0.00  0.00    -0.048 Br
ATOM     20  C   UNL d   1      17.718  -7.203  15.942  0.00  0.00     0.050 A 
ATOM     21 BR   UNL d   1      19.478  -7.977  15.997  0.00  0.00    -0.048 Br
ATOM     22  C   UNL d   1      17.310  -6.516  14.799  0.00  0.00     0.065 A 
ATOM     23 BR   UNL d   1      18.437  -6.308  13.265  0.00  0.00    -0.046 Br
ENDBRANCH   1  13
TORSDOF 2
ENDMDL
MODEL 5
REMARK VINA RESULT:      -1.3      1.652      6.496
REMARK  2 active torsions:
REMARK  status: ('A' for Active; 'I' for Inactive)
REMARK    1  A    between atoms: O_11  and  C_12 
REMARK    2  A    between atoms: O_11  and  C_13 
ROOT
ATOM      1  O   UNL d   1      15.636  -5.498  13.535  0.00  0.00    -0.305 OA
ENDROOT
BRANCH   1   2
ATOM      2  C   UNL d   1      16.439  -4.476  13.062  0.00  0.00     0.113 A 
ATOM      3  C   UNL d   1      16.859  -4.494  11.741  0.00  0.00     0.065 A 
ATOM      4 BR   UNL d   1      16.295  -5.955  10.637  0.00  0.00    -0.046 Br
ATOM      5  C   UNL d   1      17.671  -3.464  11.265  0.00  0.00     0.050 A 
ATOM      6 BR   UNL d   1      18.255  -3.495   9.433  0.00  0.00    -0.048 Br
ATOM      7  C   UNL d   1      18.053  -2.428  12.116  0.00  0.00     0.048 A 
ATOM      8 BR   UNL d   1      19.176  -1.008  11.460  0.00  0.00    -0.048 Br
ATOM      9  C   UNL d   1      17.624  -2.421  13.442  0.00  0.00     0.050 A 
ATOM     10 BR   UNL d   1      18.139  -1.001  14.632  0.00  0.00    -0.048 Br
ATOM     11  C   UNL d   1      16.812  -3.451  13.919  0.00  0.00     0.065 A 
ATOM     12 BR   UNL d   1      16.181  -3.512  15.725  0.00  0.00    -0.046 Br
ENDBRANCH   1   2
BRANCH   1  13
ATOM     13  C   UNL d   1      16.030  -6.131  14.679  0.00  0.00     0.113 A 
ATOM     14  C   UNL d   1      15.151  -6.237  15.757  0.00  0.00     0.065 A 
ATOM     15 BR   UNL d   1      13.409  -5.468  15.553  0.00  0.00    -0.046 Br
ATOM     16  C   UNL d   1      15.555  -6.882  16.926  0.00  0.00     0.050 A 
ATOM     17 BR   UNL d   1      14.328  -7.013  18.401  0.00  0.00    -0.048 Br
ATOM     18  C   UNL d   1      16.838  -7.421  17.018  0.00  0.00     0.048 A 
ATOM     19 BR   UNL d   1      17.396  -8.308  18.633  0.00  0.00    -0.048 Br
ATOM     20  C   UNL d   1      17.717  -7.315  15.941  0.00  0.00     0.050 A 
ATOM     21 BR   UNL d   1      19.490  -8.052  16.046  0.00  0.00    -0.048 Br
ATOM     22  C   UNL d   1      17.314  -6.670  14.772  0.00  0.00     0.065 A 
ATOM     23 BR   UNL d   1      18.461  -6.485  13.250  0.00  0.00    -0.046 Br
ENDBRANCH   1  13
TORSDOF 2
ENDMDL
MODEL 6
REMARK VINA RESULT:      -1.2      2.696      6.722
REMARK  2 active torsions:
REMARK  status: ('A' for Active; 'I' for Inactive)
REMARK    1  A    between atoms: O_11  and  C_12 
REMARK    2  A    between atoms: O_11  and  C_13 
ROOT
ATOM      1  O   UNL d   1      15.145  -6.112  14.875  0.00  0.00    -0.305 OA
ENDROOT
BRANCH   1   2
ATOM      2  C   UNL d   1      15.461  -4.774  15.015  0.00  0.00     0.113 A 
ATOM      3  C   UNL d   1      14.458  -3.822  14.907  0.00  0.00     0.065 A 
ATOM      4 BR   UNL d   1      12.674  -4.428  14.565  0.00  0.00    -0.046 Br
ATOM      5  C   UNL d   1      14.777  -2.470  15.047  0.00  0.00     0.050 A 
ATOM      6 BR   UNL d   1      13.384  -1.153  14.893  0.00  0.00    -0.048 Br
ATOM      7  C   UNL d   1      16.095  -2.087  15.292  0.00  0.00     0.048 A 
ATOM      8 BR   UNL d   1      16.535  -0.222  15.482  0.00  0.00    -0.048 Br
ATOM      9  C   UNL d   1      17.094  -3.054  15.399  0.00  0.00     0.050 A 
ATOM     10 BR   UNL d   1      18.917  -2.546  15.738  0.00  0.00    -0.048 Br
ATOM     11  C   UNL d   1      16.776  -4.405  15.259  0.00  0.00     0.065 A 
ATOM     12 BR   UNL d   1      18.089  -5.791  15.393  0.00  0.00    -0.046 Br
ENDBRANCH   1   2
BRANCH   1  13
ATOM     13  C   UNL d   1      15.518  -6.957  15.882  0.00  0.00     0.113 A 
ATOM     14  C   UNL d   1      15.136  -6.689  17.196  0.00  0.00     0.065 A 
ATOM     15 BR   UNL d   1      14.087  -5.116  17.506  0.00  0.00    -0.046 Br
ATOM     16  C   UNL d   1      15.519  -7.550  18.224  0.00  0.00     0.050 A 
ATOM     17 BR   UNL d   1      14.983  -7.159  20.028  0.00  0.00    -0.048 Br
ATOM     18  C   UNL d   1      16.286  -8.679  17.938  0.00  0.00     0.048 A 
ATOM     19 BR   UNL d   1      16.818  -9.866  19.358  0.00  0.00    -0.048 Br
ATOM     20  C   UNL d   1      16.669  -8.947  16.624  0.00  0.00     0.050 A 
ATOM     21 BR   UNL d   1      17.726 -10.499  16.209  0.00  0.00    -0.048 Br
ATOM     22  C   UNL d   1      16.286  -8.086  15.596  0.00  0.00     0.065 A 
ATOM     23 BR   UNL d   1      16.771  -8.386  13.768  0.00  0.00    -0.046 Br
ENDBRANCH   1  13
TORSDOF 2
ENDMDL
MODEL 7
REMARK VINA RESULT:      -1.1      3.739      5.834
REMARK  2 active torsions:
REMARK  status: ('A' for Active; 'I' for Inactive)
REMARK    1  A    between atoms: O_11  and  C_12 
REMARK    2  A    between atoms: O_11  and  C_13 
ROOT
ATOM      1  O   UNL d   1      13.213  -6.160  16.661  0.00  0.00    -0.305 OA
ENDROOT
BRANCH   1   2
ATOM      2  C   UNL d   1      14.564  -6.451  16.692  0.00  0.00     0.113 A 
ATOM      3  C   UNL d   1      15.070  -7.234  17.718  0.00  0.00     0.065 A 
ATOM      4 BR   UNL d   1      13.850  -7.873  19.049  0.00  0.00    -0.046 Br
ATOM      5  C   UNL d   1      16.435  -7.524  17.751  0.00  0.00     0.050 A 
ATOM      6 BR   UNL d   1      17.133  -8.608  19.177  0.00  0.00    -0.048 Br
ATOM      7  C   UNL d   1      17.277  -7.029  16.756  0.00  0.00     0.048 A 
ATOM      8 BR   UNL d   1      19.160  -7.428  16.802  0.00  0.00    -0.048 Br
ATOM      9  C   UNL d   1      16.756  -6.243  15.729  0.00  0.00     0.050 A 
ATOM     10 BR   UNL d   1      17.900  -5.550  14.347  0.00  0.00    -0.048 Br
ATOM     11  C   UNL d   1      15.391  -5.951  15.696  0.00  0.00     0.065 A 
ATOM     12 BR   UNL d   1      14.600  -4.881  14.321  0.00  0.00    -0.046 Br
ENDBRANCH   1   2
BRANCH   1  13
ATOM     13  C   UNL d   1      12.536  -6.433  15.506  0.00  0.00     0.113 A 
ATOM     14  C   UNL d   1      11.765  -5.442  14.898  0.00  0.00     0.065 A 
ATOM     15 BR   UNL d   1      11.708  -3.725  15.745  0.00  0.00    -0.046 Br
ATOM     16  C   UNL d   1      11.071  -5.722  13.721  0.00  0.00     0.050 A 
ATOM     17 BR   UNL d   1      10.012  -4.342  12.901  0.00  0.00    -0.048 Br
ATOM     18  C   UNL d   1      11.148  -6.992  13.151  0.00  0.00     0.048 A 
ATOM     19 BR   UNL d   1      10.188  -7.379  11.528  0.00  0.00    -0.048 Br
ATOM     20  C   UNL d   1      11.919  -7.983  13.759  0.00  0.00     0.050 A 
ATOM     21 BR   UNL d   1      12.038  -9.741  12.989  0.00  0.00    -0.048 Br
ATOM     22  C   UNL d   1      12.612  -7.704  14.936  0.00  0.00     0.065 A 
ATOM     23 BR   UNL d   1      13.691  -9.010  15.829  0.00  0.00    -0.046 Br
ENDBRANCH   1  13
TORSDOF 2
ENDMDL
MODEL 8
REMARK VINA RESULT:      -1.1      8.448     10.670
REMARK  2 active torsions:
REMARK  status: ('A' for Active; 'I' for Inactive)
REMARK    1  A    between atoms: O_11  and  C_12 
REMARK    2  A    between atoms: O_11  and  C_13 
ROOT
ATOM      1  O   UNL d   1      19.206  -2.772   4.796  0.00  0.00    -0.305 OA
ENDROOT
BRANCH   1   2
ATOM      2  C   UNL d   1      18.107  -2.391   5.544  0.00  0.00     0.113 A 
ATOM      3  C   UNL d   1      16.851  -2.868   5.203  0.00  0.00     0.065 A 
ATOM      4 BR   UNL d   1      16.712  -4.040   3.694  0.00  0.00    -0.046 Br
ATOM      5  C   UNL d   1      15.742  -2.482   5.957  0.00  0.00     0.050 A 
ATOM      6 BR   UNL d   1      14.001  -3.142   5.478  0.00  0.00    -0.048 Br
ATOM      7  C   UNL d   1      15.903  -1.623   7.044  0.00  0.00     0.048 A 
ATOM      8 BR   UNL d   1      14.373  -1.088   8.082  0.00  0.00    -0.048 Br
ATOM      9  C   UNL d   1      17.172  -1.151   7.377  0.00  0.00     0.050 A 
ATOM     10 BR   UNL d   1      17.416   0.034   8.872  0.00  0.00    -0.048 Br
ATOM     11  C   UNL d   1      18.281  -1.536   6.623  0.00  0.00     0.065 A 
ATOM     12 BR   UNL d   1      20.054  -0.932   7.017  0.00  0.00    -0.046 Br
ENDBRANCH   1   2
BRANCH   1  13
ATOM     13  C   UNL d   1      19.401  -4.109   4.598  0.00  0.00     0.113 A 
ATOM     14  C   UNL d   1      19.575  -4.606   3.306  0.00  0.00     0.065 A 
ATOM     15 BR   UNL d   1      19.528  -3.347   1.864  0.00  0.00    -0.046 Br
ATOM     16  C   UNL d   1      19.771  -5.972   3.105  0.00  0.00     0.050 A 
ATOM     17 BR   UNL d   1      20.007  -6.635   1.315  0.00  0.00    -0.048 Br
ATOM     18  C   UNL d   1      19.793  -6.842   4.194  0.00  0.00     0.048 A 
ATOM     19 BR   UNL d   1      20.061  -8.728   3.915  0.00  0.00    -0.048 Br
ATOM     20  C   UNL d   1      19.619  -6.346   5.486  0.00  0.00     0.050 A 
ATOM     21 BR   UNL d   1      19.646  -7.528   7.002  0.00  0.00    -0.048 Br
ATOM     22  C   UNL d   1      19.422  -4.980   5.688  0.00  0.00     0.065 A 
ATOM     23 BR   UNL d   1      19.176  -4.223   7.429  0.00  0.00    -0.046 Br
ENDBRANCH   1  13
TORSDOF 2
ENDMDL
MODEL 9
REMARK VINA RESULT:      -1.1      2.375      3.338
REMARK  2 active torsions:
REMARK  status: ('A' for Active; 'I' for Inactive)
REMARK    1  A    between atoms: O_11  and  C_12 
REMARK    2  A    between atoms: O_11  and  C_13 
ROOT
ATOM      1  O   UNL d   1      16.374  -3.986  15.263  0.00  0.00    -0.305 OA
ENDROOT
BRANCH   1   2
ATOM      2  C   UNL d   1      16.641  -5.312  15.547  0.00  0.00     0.113 A 
ATOM      3  C   UNL d   1      15.589  -6.187  15.776  0.00  0.00     0.065 A 
ATOM      4 BR   UNL d   1      13.806  -5.493  15.685  0.00  0.00    -0.046 Br
ATOM      5  C   UNL d   1      15.859  -7.525  16.065  0.00  0.00     0.050 A 
ATOM      6 BR   UNL d   1      14.398  -8.733  16.386  0.00  0.00    -0.048 Br
ATOM      7  C   UNL d   1      17.179  -7.973  16.121  0.00  0.00     0.048 A 
ATOM      8 BR   UNL d   1      17.551  -9.819  16.522  0.00  0.00    -0.048 Br
ATOM      9  C   UNL d   1      18.227  -7.084  15.888  0.00  0.00     0.050 A 
ATOM     10 BR   UNL d   1      20.054  -7.682  15.960  0.00  0.00    -0.048 Br
ATOM     11  C   UNL d   1      17.958  -5.746  15.600  0.00  0.00     0.065 A 
ATOM     12 BR   UNL d   1      19.341  -4.466  15.268  0.00  0.00    -0.046 Br
ENDBRANCH   1   2
BRANCH   1  13
ATOM     13  C   UNL d   1      15.453  -3.723  14.289  0.00  0.00     0.113 A 
ATOM     14  C   UNL d   1      14.344  -2.926  14.572  0.00  0.00     0.065 A 
ATOM     15 BR   UNL d   1      14.185  -2.238  16.352  0.00  0.00    -0.046 Br
ATOM     16  C   UNL d   1      13.404  -2.660  13.577  0.00  0.00     0.050 A 
ATOM     17 BR   UNL d   1      11.881  -1.561  13.991  0.00  0.00    -0.048 Br
ATOM     18  C   UNL d   1      13.571  -3.191  12.299  0.00  0.00     0.048 A 
ATOM     19 BR   UNL d   1      12.271  -2.826  10.927  0.00  0.00    -0.048 Br
ATOM     20  C   UNL d   1      14.679  -3.988  12.015  0.00  0.00     0.050 A 
ATOM     21 BR   UNL d   1      14.929  -4.730  10.259  0.00  0.00    -0.048 Br
ATOM     22  C   UNL d   1      15.620  -4.255  13.009  0.00  0.00     0.065 A 
ATOM     23 BR   UNL d   1      17.168  -5.339  12.698  0.00  0.00    -0.046 Br
ENDBRANCH   1  13
TORSDOF 2
ENDMDL
