MODEL 1
REMARK VINA RESULT:      -1.3      0.000      0.000
REMARK  12 active torsions:
REMARK  status: ('A' for Active; 'I' for Inactive)
REMARK    1  A    between atoms: P_4  and  O_5 
REMARK    2  A    between atoms: P_4  and  O_6 
REMARK    3  A    between atoms: P_4  and  O_7 
REMARK    4  A    between atoms: O_5  and  C_9 
REMARK    5  A    between atoms: O_6  and  C_10 
REMARK    6  A    between atoms: O_7  and  C_11 
REMARK    7  A    between atoms: C_9  and  C_12 
REMARK    8  A    between atoms: C_10  and  C_13 
REMARK    9  A    between atoms: C_11  and  C_14 
REMARK   10  A    between atoms: C_12  and  C_15 
REMARK   11  A    between atoms: C_13  and  C_16 
REMARK   12  A    between atoms: C_14  and  C_17 
ROOT
ATOM      1  P   UNL d   1      18.577  -7.519  16.830  0.00  0.00     0.477 P 
ATOM      2  O   UNL d   1      19.821  -6.817  17.294  0.00  0.00    -0.227 OA
ENDROOT
BRANCH   1   3
ATOM      3  O   UNL d   1      17.877  -8.453  17.956  0.00  0.00    -0.292 OA
BRANCH   3   4
ATOM      4  C   UNL d   1      16.980  -9.481  17.571  0.00  0.00     0.181 C 
BRANCH   4   5
ATOM      5  C   UNL d   1      15.689  -9.325  18.366  0.00  0.00     0.042 C 
BRANCH   5   6
ATOM      6  C   UNL d   1      15.720  -8.170  19.358  0.00  0.00     0.116 C 
ATOM      7 CL   UNL d   1      14.993  -6.694  18.685  0.00  0.00    -0.130 Cl
ENDBRANCH   5   6
ENDBRANCH   4   5
ENDBRANCH   3   4
ENDBRANCH   1   3
BRANCH   1   8
ATOM      8  O   UNL d   1      18.790  -8.505  15.563  0.00  0.00    -0.292 OA
BRANCH   8   9
ATOM      9  C   UNL d   1      20.040  -9.156  15.417  0.00  0.00     0.181 C 
BRANCH   9  10
ATOM     10  C   UNL d   1      19.792 -10.637  15.152  0.00  0.00     0.042 C 
BRANCH  10  11
ATOM     11  C   UNL d   1      18.529 -10.910  14.345  0.00  0.00     0.116 C 
ATOM     12 CL   UNL d   1      18.690 -10.377  12.656  0.00  0.00    -0.130 Cl
ENDBRANCH  10  11
ENDBRANCH   9  10
ENDBRANCH   8   9
ENDBRANCH   1   8
BRANCH   1  13
ATOM     13  O   UNL d   1      17.393  -6.534  16.329  0.00  0.00    -0.292 OA
BRANCH  13  14
ATOM     14  C   UNL d   1      17.395  -6.109  14.976  0.00  0.00     0.181 C 
BRANCH  14  15
ATOM     15  C   UNL d   1      15.974  -6.194  14.435  0.00  0.00     0.042 C 
BRANCH  15  16
ATOM     16  C   UNL d   1      15.144  -7.302  15.069  0.00  0.00     0.116 C 
ATOM     17 CL   UNL d   1      15.468  -8.885  14.326  0.00  0.00    -0.130 Cl
ENDBRANCH  15  16
ENDBRANCH  14  15
ENDBRANCH  13  14
ENDBRANCH   1  13
TORSDOF 12
ENDMDL
MODEL 2
REMARK VINA RESULT:      -0.8      7.077      8.632
REMARK  12 active torsions:
REMARK  status: ('A' for Active; 'I' for Inactive)
REMARK    1  A    between atoms: P_4  and  O_5 
REMARK    2  A    between atoms: P_4  and  O_6 
REMARK    3  A    between atoms: P_4  and  O_7 
REMARK    4  A    between atoms: O_5  and  C_9 
REMARK    5  A    between atoms: O_6  and  C_10 
REMARK    6  A    between atoms: O_7  and  C_11 
REMARK    7  A    between atoms: C_9  and  C_12 
REMARK    8  A    between atoms: C_10  and  C_13 
REMARK    9  A    between atoms: C_11  and  C_14 
REMARK   10  A    between atoms: C_12  and  C_15 
REMARK   11  A    between atoms: C_13  and  C_16 
REMARK   12  A    between atoms: C_14  and  C_17 
ROOT
ATOM      1  P   UNL d   1      18.989  -2.231  15.933  0.00  0.00     0.477 P 
ATOM      2  O   UNL d   1      19.646  -3.577  16.041  0.00  0.00    -0.227 OA
ENDROOT
BRANCH   1   3
ATOM      3  O   UNL d   1      17.404  -2.231  16.275  0.00  0.00    -0.292 OA
BRANCH   3   4
ATOM      4  C   UNL d   1      16.470  -1.760  15.317  0.00  0.00     0.181 C 
BRANCH   4   5
ATOM      5  C   UNL d   1      15.162  -1.436  16.030  0.00  0.00     0.042 C 
BRANCH   5   6
ATOM      6  C   UNL d   1      15.089  -1.986  17.448  0.00  0.00     0.116 C 
ATOM      7 CL   UNL d   1      15.165  -0.696  18.669  0.00  0.00    -0.130 Cl
ENDBRANCH   5   6
ENDBRANCH   4   5
ENDBRANCH   3   4
ENDBRANCH   1   3
BRANCH   1   8
ATOM      8  O   UNL d   1      19.086  -1.548  14.467  0.00  0.00    -0.292 OA
BRANCH   8   9
ATOM      9  C   UNL d   1      19.840  -0.356  14.327  0.00  0.00     0.181 C 
BRANCH   9  10
ATOM     10  C   UNL d   1      18.880   0.805  14.091  0.00  0.00     0.042 C 
BRANCH  10  11
ATOM     11  C   UNL d   1      18.073   0.678  12.806  0.00  0.00     0.116 C 
ATOM     12 CL   UNL d   1      18.316   2.071  11.727  0.00  0.00    -0.130 Cl
ENDBRANCH  10  11
ENDBRANCH   9  10
ENDBRANCH   8   9
ENDBRANCH   1   8
BRANCH   1  13
ATOM     13  O   UNL d   1      19.612  -1.095  16.905  0.00  0.00    -0.292 OA
BRANCH  13  14
ATOM     14  C   UNL d   1      18.849  -0.669  18.021  0.00  0.00     0.181 C 
BRANCH  14  15
ATOM     15  C   UNL d   1      18.370   0.755  17.770  0.00  0.00     0.042 C 
BRANCH  15  16
ATOM     16  C   UNL d   1      18.606   1.694  18.946  0.00  0.00     0.116 C 
ATOM     17 CL   UNL d   1      20.286   2.274  19.009  0.00  0.00    -0.130 Cl
ENDBRANCH  15  16
ENDBRANCH  14  15
ENDBRANCH  13  14
ENDBRANCH   1  13
TORSDOF 12
ENDMDL
MODEL 3
REMARK VINA RESULT:      -0.8      3.283      5.596
REMARK  12 active torsions:
REMARK  status: ('A' for Active; 'I' for Inactive)
REMARK    1  A    between atoms: P_4  and  O_5 
REMARK    2  A    between atoms: P_4  and  O_6 
REMARK    3  A    between atoms: P_4  and  O_7 
REMARK    4  A    between atoms: O_5  and  C_9 
REMARK    5  A    between atoms: O_6  and  C_10 
REMARK    6  A    between atoms: O_7  and  C_11 
REMARK    7  A    between atoms: C_9  and  C_12 
REMARK    8  A    between atoms: C_10  and  C_13 
REMARK    9  A    between atoms: C_11  and  C_14 
REMARK   10  A    between atoms: C_12  and  C_15 
REMARK   11  A    between atoms: C_13  and  C_16 
REMARK   12  A    between atoms: C_14  and  C_17 
ROOT
ATOM      1  P   UNL d   1      17.409  -4.865  14.965  0.00  0.00     0.477 P 
ATOM      2  O   UNL d   1      17.597  -4.935  13.477  0.00  0.00    -0.227 OA
ENDROOT
BRANCH   1   3
ATOM      3  O   UNL d   1      15.917  -5.248  15.470  0.00  0.00    -0.292 OA
BRANCH   3   4
ATOM      4  C   UNL d   1      15.055  -6.003  14.633  0.00  0.00     0.181 C 
BRANCH   4   5
ATOM      5  C   UNL d   1      15.251  -7.483  14.940  0.00  0.00     0.042 C 
BRANCH   5   6
ATOM      6  C   UNL d   1      15.244  -7.803  16.428  0.00  0.00     0.116 C 
ATOM      7 CL   UNL d   1      13.643  -7.544  17.159  0.00  0.00    -0.130 Cl
ENDBRANCH   5   6
ENDBRANCH   4   5
ENDBRANCH   3   4
ENDBRANCH   1   3
BRANCH   1   8
ATOM      8  O   UNL d   1      17.693  -3.408  15.614  0.00  0.00    -0.292 OA
BRANCH   8   9
ATOM      9  C   UNL d   1      17.949  -2.320  14.743  0.00  0.00     0.181 C 
BRANCH   9  10
ATOM     10  C   UNL d   1      19.422  -1.944  14.849  0.00  0.00     0.042 C 
BRANCH  10  11
ATOM     11  C   UNL d   1      19.966  -1.999  16.270  0.00  0.00     0.116 C 
ATOM     12 CL   UNL d   1      19.100  -0.890  17.358  0.00  0.00    -0.130 Cl
ENDBRANCH  10  11
ENDBRANCH   9  10
ENDBRANCH   8   9
ENDBRANCH   1   8
BRANCH   1  13
ATOM     13  O   UNL d   1      18.386  -5.838  15.816  0.00  0.00    -0.292 OA
BRANCH  13  14
ATOM     14  C   UNL d   1      19.788  -5.669  15.684  0.00  0.00     0.181 C 
BRANCH  14  15
ATOM     15  C   UNL d   1      20.365  -6.900  14.996  0.00  0.00     0.042 C 
BRANCH  15  16
ATOM     16  C   UNL d   1      20.382  -8.141  15.878  0.00  0.00     0.116 C 
ATOM     17 CL   UNL d   1      19.084  -9.280  15.450  0.00  0.00    -0.130 Cl
ENDBRANCH  15  16
ENDBRANCH  14  15
ENDBRANCH  13  14
ENDBRANCH   1  13
TORSDOF 12
ENDMDL
MODEL 4
REMARK VINA RESULT:      -0.8      6.606      8.409
REMARK  12 active torsions:
REMARK  status: ('A' for Active; 'I' for Inactive)
REMARK    1  A    between atoms: P_4  and  O_5 
REMARK    2  A    between atoms: P_4  and  O_6 
REMARK    3  A    between atoms: P_4  and  O_7 
REMARK    4  A    between atoms: O_5  and  C_9 
REMARK    5  A    between atoms: O_6  and  C_10 
REMARK    6  A    between atoms: O_7  and  C_11 
REMARK    7  A    between atoms: C_9  and  C_12 
REMARK    8  A    between atoms: C_10  and  C_13 
REMARK    9  A    between atoms: C_11  and  C_14 
REMARK   10  A    between atoms: C_12  and  C_15 
REMARK   11  A    between atoms: C_13  and  C_16 
REMARK   12  A    between atoms: C_14  and  C_17 
ROOT
ATOM      1  P   UNL d   1      16.277  -1.245  15.211  0.00  0.00     0.477 P 
ATOM      2  O   UNL d   1      14.784  -1.201  15.050  0.00  0.00    -0.227 OA
ENDROOT
BRANCH   1   3
ATOM      3  O   UNL d   1      17.089  -0.308  14.167  0.00  0.00    -0.292 OA
BRANCH   3   4
ATOM      4  C   UNL d   1      17.844   0.796  14.640  0.00  0.00     0.181 C 
BRANCH   4   5
ATOM      5  C   UNL d   1      19.322   0.513  14.406  0.00  0.00     0.042 C 
BRANCH   5   6
ATOM      6  C   UNL d   1      20.175   0.652  15.660  0.00  0.00     0.116 C 
ATOM      7 CL   UNL d   1      20.208  -0.849  16.613  0.00  0.00    -0.130 Cl
ENDBRANCH   5   6
ENDBRANCH   4   5
ENDBRANCH   3   4
ENDBRANCH   1   3
BRANCH   1   8
ATOM      8  O   UNL d   1      16.933  -2.714  15.031  0.00  0.00    -0.292 OA
BRANCH   8   9
ATOM      9  C   UNL d   1      17.623  -3.003  13.828  0.00  0.00     0.181 C 
BRANCH   9  10
ATOM     10  C   UNL d   1      19.088  -3.268  14.156  0.00  0.00     0.042 C 
BRANCH  10  11
ATOM     11  C   UNL d   1      20.044  -2.879  13.035  0.00  0.00     0.116 C 
ATOM     12 CL   UNL d   1      19.222  -1.980  11.739  0.00  0.00    -0.130 Cl
ENDBRANCH  10  11
ENDBRANCH   9  10
ENDBRANCH   8   9
ENDBRANCH   1   8
BRANCH   1  13
ATOM     13  O   UNL d   1      16.811  -0.784  16.669  0.00  0.00    -0.292 OA
BRANCH  13  14
ATOM     14  C   UNL d   1      15.879  -0.693  17.733  0.00  0.00     0.181 C 
BRANCH  14  15
ATOM     15  C   UNL d   1      16.600  -0.986  19.042  0.00  0.00     0.042 C 
BRANCH  15  16
ATOM     16  C   UNL d   1      17.705   0.011  19.366  0.00  0.00     0.116 C 
ATOM     17 CL   UNL d   1      19.039  -0.743  20.269  0.00  0.00    -0.130 Cl
ENDBRANCH  15  16
ENDBRANCH  14  15
ENDBRANCH  13  14
ENDBRANCH   1  13
TORSDOF 12
ENDMDL
MODEL 5
REMARK VINA RESULT:      -0.8      2.592      3.825
REMARK  12 active torsions:
REMARK  status: ('A' for Active; 'I' for Inactive)
REMARK    1  A    between atoms: P_4  and  O_5 
REMARK    2  A    between atoms: P_4  and  O_6 
REMARK    3  A    between atoms: P_4  and  O_7 
REMARK    4  A    between atoms: O_5  and  C_9 
REMARK    5  A    between atoms: O_6  and  C_10 
REMARK    6  A    between atoms: O_7  and  C_11 
REMARK    7  A    between atoms: C_9  and  C_12 
REMARK    8  A    between atoms: C_10  and  C_13 
REMARK    9  A    between atoms: C_11  and  C_14 
REMARK   10  A    between atoms: C_12  and  C_15 
REMARK   11  A    between atoms: C_13  and  C_16 
REMARK   12  A    between atoms: C_14  and  C_17 
ROOT
ATOM      1  P   UNL d   1      15.419  -6.378  16.779  0.00  0.00     0.477 P 
ATOM      2  O   UNL d   1      14.998  -5.354  17.794  0.00  0.00    -0.227 OA
ENDROOT
BRANCH   1   3
ATOM      3  O   UNL d   1      16.826  -7.111  17.113  0.00  0.00    -0.292 OA
BRANCH   3   4
ATOM      4  C   UNL d   1      16.930  -7.973  18.235  0.00  0.00     0.181 C 
BRANCH   4   5
ATOM      5  C   UNL d   1      17.238  -9.381  17.741  0.00  0.00     0.042 C 
BRANCH   5   6
ATOM      6  C   UNL d   1      16.528 -10.472  18.531  0.00  0.00     0.116 C 
ATOM      7 CL   UNL d   1      17.178 -10.634  20.179  0.00  0.00    -0.130 Cl
ENDBRANCH   5   6
ENDBRANCH   4   5
ENDBRANCH   3   4
ENDBRANCH   1   3
BRANCH   1   8
ATOM      8  O   UNL d   1      15.611  -5.801  15.277  0.00  0.00    -0.292 OA
BRANCH   8   9
ATOM      9  C   UNL d   1      16.917  -5.461  14.846  0.00  0.00     0.181 C 
BRANCH   9  10
ATOM     10  C   UNL d   1      16.955  -5.500  13.323  0.00  0.00     0.042 C 
BRANCH  10  11
ATOM     11  C   UNL d   1      18.339  -5.782  12.753  0.00  0.00     0.116 C 
ATOM     12 CL   UNL d   1      19.526  -6.132  14.031  0.00  0.00    -0.130 Cl
ENDBRANCH  10  11
ENDBRANCH   9  10
ENDBRANCH   8   9
ENDBRANCH   1   8
BRANCH   1  13
ATOM     13  O   UNL d   1      14.369  -7.593  16.570  0.00  0.00    -0.292 OA
BRANCH  13  14
ATOM     14  C   UNL d   1      14.034  -7.976  15.247  0.00  0.00     0.181 C 
BRANCH  14  15
ATOM     15  C   UNL d   1      14.850  -9.207  14.873  0.00  0.00     0.042 C 
BRANCH  15  16
ATOM     16  C   UNL d   1      15.791  -8.981  13.697  0.00  0.00     0.116 C 
ATOM     17 CL   UNL d   1      17.499  -9.086  14.181  0.00  0.00    -0.130 Cl
ENDBRANCH  15  16
ENDBRANCH  14  15
ENDBRANCH  13  14
ENDBRANCH   1  13
TORSDOF 12
ENDMDL
MODEL 6
REMARK VINA RESULT:      -0.7     12.938     14.403
REMARK  12 active torsions:
REMARK  status: ('A' for Active; 'I' for Inactive)
REMARK    1  A    between atoms: P_4  and  O_5 
REMARK    2  A    between atoms: P_4  and  O_6 
REMARK    3  A    between atoms: P_4  and  O_7 
REMARK    4  A    between atoms: O_5  and  C_9 
REMARK    5  A    between atoms: O_6  and  C_10 
REMARK    6  A    between atoms: O_7  and  C_11 
REMARK    7  A    between atoms: C_9  and  C_12 
REMARK    8  A    between atoms: C_10  and  C_13 
REMARK    9  A    between atoms: C_11  and  C_14 
REMARK   10  A    between atoms: C_12  and  C_15 
REMARK   11  A    between atoms: C_13  and  C_16 
REMARK   12  A    between atoms: C_14  and  C_17 
ROOT
ATOM      1  P   UNL d   1      19.289  -4.350   2.588  0.00  0.00     0.477 P 
ATOM      2  O   UNL d   1      18.035  -3.524   2.632  0.00  0.00    -0.227 OA
ENDROOT
BRANCH   1   3
ATOM      3  O   UNL d   1      20.370  -3.986   3.740  0.00  0.00    -0.292 OA
BRANCH   3   4
ATOM      4  C   UNL d   1      19.967  -3.258   4.889  0.00  0.00     0.181 C 
BRANCH   4   5
ATOM      5  C   UNL d   1      19.333  -4.226   5.882  0.00  0.00     0.042 C 
BRANCH   5   6
ATOM      6  C   UNL d   1      20.347  -4.954   6.754  0.00  0.00     0.116 C 
ATOM      7 CL   UNL d   1      19.582  -5.729   8.160  0.00  0.00    -0.130 Cl
ENDBRANCH   5   6
ENDBRANCH   4   5
ENDBRANCH   3   4
ENDBRANCH   1   3
BRANCH   1   8
ATOM      8  O   UNL d   1      20.122  -4.240   1.203  0.00  0.00    -0.292 OA
BRANCH   8   9
ATOM      9  C   UNL d   1      19.495  -4.659   0.003  0.00  0.00     0.181 C 
BRANCH   9  10
ATOM     10  C   UNL d   1      20.318  -5.785  -0.611  0.00  0.00     0.042 C 
BRANCH  10  11
ATOM     11  C   UNL d   1      19.499  -6.746  -1.463  0.00  0.00     0.116 C 
ATOM     12 CL   UNL d   1      20.388  -8.244  -1.820  0.00  0.00    -0.130 Cl
ENDBRANCH  10  11
ENDBRANCH   9  10
ENDBRANCH   8   9
ENDBRANCH   1   8
BRANCH   1  13
ATOM     13  O   UNL d   1      19.053  -5.945   2.744  0.00  0.00    -0.292 OA
BRANCH  13  14
ATOM     14  C   UNL d   1      20.148  -6.754   3.136  0.00  0.00     0.181 C 
BRANCH  14  15
ATOM     15  C   UNL d   1      20.116  -8.045   2.327  0.00  0.00     0.042 C 
BRANCH  15  16
ATOM     16  C   UNL d   1      18.743  -8.375   1.758  0.00  0.00     0.116 C 
ATOM     17 CL   UNL d   1      18.742  -9.916   0.870  0.00  0.00    -0.130 Cl
ENDBRANCH  15  16
ENDBRANCH  14  15
ENDBRANCH  13  14
ENDBRANCH   1  13
TORSDOF 12
ENDMDL
MODEL 7
REMARK VINA RESULT:      -0.7      5.783      7.606
REMARK  12 active torsions:
REMARK  status: ('A' for Active; 'I' for Inactive)
REMARK    1  A    between atoms: P_4  and  O_5 
REMARK    2  A    between atoms: P_4  and  O_6 
REMARK    3  A    between atoms: P_4  and  O_7 
REMARK    4  A    between atoms: O_5  and  C_9 
REMARK    5  A    between atoms: O_6  and  C_10 
REMARK    6  A    between atoms: O_7  and  C_11 
REMARK    7  A    between atoms: C_9  and  C_12 
REMARK    8  A    between atoms: C_10  and  C_13 
REMARK    9  A    between atoms: C_11  and  C_14 
REMARK   10  A    between atoms: C_12  and  C_15 
REMARK   11  A    between atoms: C_13  and  C_16 
REMARK   12  A    between atoms: C_14  and  C_17 
ROOT
ATOM      1  P   UNL d   1      16.875  -2.966  12.417  0.00  0.00     0.477 P 
ATOM      2  O   UNL d   1      15.786  -2.438  13.307  0.00  0.00    -0.227 OA
ENDROOT
BRANCH   1   3
ATOM      3  O   UNL d   1      16.442  -4.239  11.513  0.00  0.00    -0.292 OA
BRANCH   3   4
ATOM      4  C   UNL d   1      17.056  -5.501  11.720  0.00  0.00     0.181 C 
BRANCH   4   5
ATOM      5  C   UNL d   1      17.903  -5.837  10.498  0.00  0.00     0.042 C 
BRANCH   5   6
ATOM      6  C   UNL d   1      19.401  -5.732  10.748  0.00  0.00     0.116 C 
ATOM      7 CL   UNL d   1      19.852  -6.330  12.360  0.00  0.00    -0.130 Cl
ENDBRANCH   5   6
ENDBRANCH   4   5
ENDBRANCH   3   4
ENDBRANCH   1   3
BRANCH   1   8
ATOM      8  O   UNL d   1      18.206  -3.458  13.199  0.00  0.00    -0.292 OA
BRANCH   8   9
ATOM      9  C   UNL d   1      19.410  -2.736  13.004  0.00  0.00     0.181 C 
BRANCH   9  10
ATOM     10  C   UNL d   1      20.176  -2.699  14.321  0.00  0.00     0.042 C 
BRANCH  10  11
ATOM     11  C   UNL d   1      19.510  -3.493  15.438  0.00  0.00     0.116 C 
ATOM     12 CL   UNL d   1      20.374  -5.009  15.784  0.00  0.00    -0.130 Cl
ENDBRANCH  10  11
ENDBRANCH   9  10
ENDBRANCH   8   9
ENDBRANCH   1   8
BRANCH   1  13
ATOM     13  O   UNL d   1      17.456  -1.892  11.352  0.00  0.00    -0.292 OA
BRANCH  13  14
ATOM     14  C   UNL d   1      17.114  -2.045   9.985  0.00  0.00     0.181 C 
BRANCH  14  15
ATOM     15  C   UNL d   1      18.379  -2.357   9.196  0.00  0.00     0.042 C 
BRANCH  15  16
ATOM     16  C   UNL d   1      18.115  -3.068   7.875  0.00  0.00     0.116 C 
ATOM     17 CL   UNL d   1      19.446  -4.161   7.430  0.00  0.00    -0.130 Cl
ENDBRANCH  15  16
ENDBRANCH  14  15
ENDBRANCH  13  14
ENDBRANCH   1  13
TORSDOF 12
ENDMDL
MODEL 8
REMARK VINA RESULT:      -0.6      7.584      9.598
REMARK  12 active torsions:
REMARK  status: ('A' for Active; 'I' for Inactive)
REMARK    1  A    between atoms: P_4  and  O_5 
REMARK    2  A    between atoms: P_4  and  O_6 
REMARK    3  A    between atoms: P_4  and  O_7 
REMARK    4  A    between atoms: O_5  and  C_9 
REMARK    5  A    between atoms: O_6  and  C_10 
REMARK    6  A    between atoms: O_7  and  C_11 
REMARK    7  A    between atoms: C_9  and  C_12 
REMARK    8  A    between atoms: C_10  and  C_13 
REMARK    9  A    between atoms: C_11  and  C_14 
REMARK   10  A    between atoms: C_12  and  C_15 
REMARK   11  A    between atoms: C_13  and  C_16 
REMARK   12  A    between atoms: C_14  and  C_17 
ROOT
ATOM      1  P   UNL d   1      19.521  -0.837  16.774  0.00  0.00     0.477 P 
ATOM      2  O   UNL d   1      20.131  -2.208  16.832  0.00  0.00    -0.227 OA
ENDROOT
BRANCH   1   3
ATOM      3  O   UNL d   1      17.939  -0.824  16.418  0.00  0.00    -0.292 OA
BRANCH   3   4
ATOM      4  C   UNL d   1      17.229  -2.045  16.288  0.00  0.00     0.181 C 
BRANCH   4   5
ATOM      5  C   UNL d   1      16.860  -2.241  14.822  0.00  0.00     0.042 C 
BRANCH   5   6
ATOM      6  C   UNL d   1      16.235  -1.010  14.181  0.00  0.00     0.116 C 
ATOM      7 CL   UNL d   1      17.344  -0.214  13.042  0.00  0.00    -0.130 Cl
ENDBRANCH   5   6
ENDBRANCH   4   5
ENDBRANCH   3   4
ENDBRANCH   1   3
BRANCH   1   8
ATOM      8  O   UNL d   1      20.190   0.155  15.682  0.00  0.00    -0.292 OA
BRANCH   8   9
ATOM      9  C   UNL d   1      19.537   1.378  15.392  0.00  0.00     0.181 C 
BRANCH   9  10
ATOM     10  C   UNL d   1      20.388   2.165  14.403  0.00  0.00     0.042 C 
BRANCH  10  11
ATOM     11  C   UNL d   1      19.625   2.618  13.165  0.00  0.00     0.116 C 
ATOM     12 CL   UNL d   1      18.058   3.349  13.579  0.00  0.00    -0.130 Cl
ENDBRANCH  10  11
ENDBRANCH   9  10
ENDBRANCH   8   9
ENDBRANCH   1   8
BRANCH   1  13
ATOM     13  O   UNL d   1      19.632   0.010  18.151  0.00  0.00    -0.292 OA
BRANCH  13  14
ATOM     14  C   UNL d   1      18.444   0.285  18.873  0.00  0.00     0.181 C 
BRANCH  14  15
ATOM     15  C   UNL d   1      18.158   1.779  18.794  0.00  0.00     0.042 C 
BRANCH  15  16
ATOM     16  C   UNL d   1      16.681   2.126  18.925  0.00  0.00     0.116 C 
ATOM     17 CL   UNL d   1      15.821   0.987  19.986  0.00  0.00    -0.130 Cl
ENDBRANCH  15  16
ENDBRANCH  14  15
ENDBRANCH  13  14
ENDBRANCH   1  13
TORSDOF 12
ENDMDL
MODEL 9
REMARK VINA RESULT:      -0.6      3.144      5.003
REMARK  12 active torsions:
REMARK  status: ('A' for Active; 'I' for Inactive)
REMARK    1  A    between atoms: P_4  and  O_5 
REMARK    2  A    between atoms: P_4  and  O_6 
REMARK    3  A    between atoms: P_4  and  O_7 
REMARK    4  A    between atoms: O_5  and  C_9 
REMARK    5  A    between atoms: O_6  and  C_10 
REMARK    6  A    between atoms: O_7  and  C_11 
REMARK    7  A    between atoms: C_9  and  C_12 
REMARK    8  A    between atoms: C_10  and  C_13 
REMARK    9  A    between atoms: C_11  and  C_14 
REMARK   10  A    between atoms: C_12  and  C_15 
REMARK   11  A    between atoms: C_13  and  C_16 
REMARK   12  A    between atoms: C_14  and  C_17 
ROOT
ATOM      1  P   UNL d   1      16.142  -7.670  14.780  0.00  0.00     0.477 P 
ATOM      2  O   UNL d   1      16.672  -8.788  13.929  0.00  0.00    -0.227 OA
ENDROOT
BRANCH   1   3
ATOM      3  O   UNL d   1      17.040  -6.321  14.747  0.00  0.00    -0.292 OA
BRANCH   3   4
ATOM      4  C   UNL d   1      18.386  -6.373  14.302  0.00  0.00     0.181 C 
BRANCH   4   5
ATOM      5  C   UNL d   1      19.178  -5.285  15.016  0.00  0.00     0.042 C 
BRANCH   5   6
ATOM      6  C   UNL d   1      20.162  -5.824  16.046  0.00  0.00     0.116 C 
ATOM      7 CL   UNL d   1      19.755  -7.478  16.555  0.00  0.00    -0.130 Cl
ENDBRANCH   5   6
ENDBRANCH   4   5
ENDBRANCH   3   4
ENDBRANCH   1   3
BRANCH   1   8
ATOM      8  O   UNL d   1      16.004  -8.026  16.354  0.00  0.00    -0.292 OA
BRANCH   8   9
ATOM      9  C   UNL d   1      16.246  -7.000  17.302  0.00  0.00     0.181 C 
BRANCH   9  10
ATOM     10  C   UNL d   1      15.248  -7.146  18.445  0.00  0.00     0.042 C 
BRANCH  10  11
ATOM     11  C   UNL d   1      15.553  -8.312  19.377  0.00  0.00     0.116 C 
ATOM     12 CL   UNL d   1      17.301  -8.528  19.624  0.00  0.00    -0.130 Cl
ENDBRANCH  10  11
ENDBRANCH   9  10
ENDBRANCH   8   9
ENDBRANCH   1   8
BRANCH   1  13
ATOM     13  O   UNL d   1      14.650  -7.172  14.389  0.00  0.00    -0.292 OA
BRANCH  13  14
ATOM     14  C   UNL d   1      13.542  -7.876  14.924  0.00  0.00     0.181 C 
BRANCH  14  15
ATOM     15  C   UNL d   1      13.084  -8.913  13.907  0.00  0.00     0.042 C 
BRANCH  15  16
ATOM     16  C   UNL d   1      13.014  -8.381  12.482  0.00  0.00     0.116 C 
ATOM     17 CL   UNL d   1      11.769  -7.125  12.300  0.00  0.00    -0.130 Cl
ENDBRANCH  15  16
ENDBRANCH  14  15
ENDBRANCH  13  14
ENDBRANCH   1  13
TORSDOF 12
ENDMDL
