MODEL 1
REMARK VINA RESULT:      -1.3      0.000      0.000
REMARK  3 active torsions:
REMARK  status: ('A' for Active; 'I' for Inactive)
REMARK    1  A    between atoms: C_11  and  C_12 
REMARK    2  A    between atoms: C_11  and  C_13 
REMARK    3  A    between atoms: C_12  and  C_14 
ROOT
ATOM      1  C   UNL d   1      15.254  -8.291  14.270  0.00  0.00     0.045 C 
ENDROOT
BRANCH   1   2
ATOM      2  C   UNL d   1      14.409  -8.794  15.452  0.00  0.00     0.045 C 
BRANCH   2   3
ATOM      3  C   UNL d   1      15.147  -9.755  16.351  0.00  0.00    -0.020 A 
ATOM      4  C   UNL d   1      15.308 -11.080  15.960  0.00  0.00     0.037 A 
ATOM      5 BR   UNL d   1      14.573 -11.624  14.273  0.00  0.00    -0.049 Br
ATOM      6  C   UNL d   1      15.988 -11.968  16.790  0.00  0.00     0.047 A 
ATOM      7 BR   UNL d   1      16.202 -13.801  16.244  0.00  0.00    -0.048 Br
ATOM      8  C   UNL d   1      16.505 -11.529  18.009  0.00  0.00     0.048 A 
ATOM      9 BR   UNL d   1      17.445 -12.755  19.156  0.00  0.00    -0.048 Br
ATOM     10  C   UNL d   1      16.341 -10.198  18.396  0.00  0.00     0.047 A 
ATOM     11 BR   UNL d   1      17.050  -9.573  20.072  0.00  0.00    -0.048 Br
ATOM     12  C   UNL d   1      15.659  -9.309  17.564  0.00  0.00     0.037 A 
ATOM     13 BR   UNL d   1      15.399  -7.470  18.040  0.00  0.00    -0.049 Br
ENDBRANCH   2   3
ENDBRANCH   1   2
BRANCH   1  14
ATOM     14  C   UNL d   1      15.964  -6.997  14.543  0.00  0.00    -0.020 A 
ATOM     15  C   UNL d   1      17.328  -6.997  14.835  0.00  0.00     0.037 A 
ATOM     16 BR   UNL d   1      18.239  -8.684  14.874  0.00  0.00    -0.049 Br
ATOM     17  C   UNL d   1      17.987  -5.794  15.090  0.00  0.00     0.047 A 
ATOM     18 BR   UNL d   1      19.868  -5.814  15.497  0.00  0.00    -0.048 Br
ATOM     19  C   UNL d   1      17.283  -4.591  15.053  0.00  0.00     0.048 A 
ATOM     20 BR   UNL d   1      18.193  -2.931  15.404  0.00  0.00    -0.048 Br
ATOM     21  C   UNL d   1      15.919  -4.590  14.760  0.00  0.00     0.047 A 
ATOM     22 BR   UNL d   1      14.933  -2.940  14.700  0.00  0.00    -0.048 Br
ATOM     23  C   UNL d   1      15.260  -5.793  14.505  0.00  0.00     0.037 A 
ATOM     24 BR   UNL d   1      13.387  -5.860  14.098  0.00  0.00    -0.049 Br
ENDBRANCH   1  14
TORSDOF 3
ENDMDL
MODEL 2
REMARK VINA RESULT:      -1.2      3.223      7.847
REMARK  3 active torsions:
REMARK  status: ('A' for Active; 'I' for Inactive)
REMARK    1  A    between atoms: C_11  and  C_12 
REMARK    2  A    between atoms: C_11  and  C_13 
REMARK    3  A    between atoms: C_12  and  C_14 
ROOT
ATOM      1  C   UNL d   1      15.569  -3.775  13.830  0.00  0.00     0.045 C 
ENDROOT
BRANCH   1   2
ATOM      2  C   UNL d   1      16.565  -2.608  13.741  0.00  0.00     0.045 C 
BRANCH   2   3
ATOM      3  C   UNL d   1      16.455  -1.639  14.893  0.00  0.00    -0.020 A 
ATOM      4  C   UNL d   1      15.338  -0.816  14.997  0.00  0.00     0.037 A 
ATOM      5 BR   UNL d   1      13.976  -0.960  13.653  0.00  0.00    -0.049 Br
ATOM      6  C   UNL d   1      15.236   0.080  16.060  0.00  0.00     0.047 A 
ATOM      7 BR   UNL d   1      13.690   1.218  16.194  0.00  0.00    -0.048 Br
ATOM      8  C   UNL d   1      16.252   0.152  17.013  0.00  0.00     0.048 A 
ATOM      9 BR   UNL d   1      16.111   1.389  18.480  0.00  0.00    -0.048 Br
ATOM     10  C   UNL d   1      17.370  -0.676  16.903  0.00  0.00     0.047 A 
ATOM     11 BR   UNL d   1      18.779  -0.594  18.211  0.00  0.00    -0.048 Br
ATOM     12  C   UNL d   1      17.471  -1.573  15.839  0.00  0.00     0.037 A 
ATOM     13 BR   UNL d   1      18.983  -2.735  15.632  0.00  0.00    -0.049 Br
ENDBRANCH   2   3
ENDBRANCH   1   2
BRANCH   1  14
ATOM     14  C   UNL d   1      15.987  -4.855  14.785  0.00  0.00    -0.020 A 
ATOM     15  C   UNL d   1      17.076  -5.672  14.480  0.00  0.00     0.037 A 
ATOM     16 BR   UNL d   1      17.997  -5.366  12.826  0.00  0.00    -0.049 Br
ATOM     17  C   UNL d   1      17.463  -6.678  15.367  0.00  0.00     0.047 A 
ATOM     18 BR   UNL d   1      18.964  -7.800  14.928  0.00  0.00    -0.048 Br
ATOM     19  C   UNL d   1      16.763  -6.865  16.558  0.00  0.00     0.048 A 
ATOM     20 BR   UNL d   1      17.298  -8.252  17.782  0.00  0.00    -0.048 Br
ATOM     21  C   UNL d   1      15.674  -6.048  16.863  0.00  0.00     0.047 A 
ATOM     22 BR   UNL d   1      14.699  -6.290  18.503  0.00  0.00    -0.048 Br
ATOM     23  C   UNL d   1      15.287  -5.043  15.976  0.00  0.00     0.037 A 
ATOM     24 BR   UNL d   1      13.799  -3.887  16.336  0.00  0.00    -0.049 Br
ENDBRANCH   1  14
TORSDOF 3
ENDMDL
MODEL 3
REMARK VINA RESULT:      -1.1      3.502      5.839
REMARK  3 active torsions:
REMARK  status: ('A' for Active; 'I' for Inactive)
REMARK    1  A    between atoms: C_11  and  C_12 
REMARK    2  A    between atoms: C_11  and  C_13 
REMARK    3  A    between atoms: C_12  and  C_14 
ROOT
ATOM      1  C   UNL d   1      17.110 -11.309  13.728  0.00  0.00     0.045 C 
ENDROOT
BRANCH   1   2
ATOM      2  C   UNL d   1      18.346 -12.176  13.438  0.00  0.00     0.045 C 
BRANCH   2   3
ATOM      3  C   UNL d   1      18.145 -13.634  13.771  0.00  0.00    -0.020 A 
ATOM      4  C   UNL d   1      17.401 -14.441  12.916  0.00  0.00     0.037 A 
ATOM      5 BR   UNL d   1      16.659 -13.646  11.335  0.00  0.00    -0.049 Br
ATOM      6  C   UNL d   1      17.214 -15.787  13.224  0.00  0.00     0.047 A 
ATOM      7 BR   UNL d   1      16.179 -16.895  12.039  0.00  0.00    -0.048 Br
ATOM      8  C   UNL d   1      17.772 -16.322  14.385  0.00  0.00     0.048 A 
ATOM      9 BR   UNL d   1      17.514 -18.181  14.811  0.00  0.00    -0.048 Br
ATOM     10  C   UNL d   1      18.517 -15.508  15.239  0.00  0.00     0.047 A 
ATOM     11 BR   UNL d   1      19.296 -16.229  16.844  0.00  0.00    -0.048 Br
ATOM     12  C   UNL d   1      18.703 -14.160  14.930  0.00  0.00     0.037 A 
ATOM     13 BR   UNL d   1      19.716 -12.990  16.063  0.00  0.00    -0.049 Br
ENDBRANCH   2   3
ENDBRANCH   1   2
BRANCH   1  14
ATOM     14  C   UNL d   1      17.129 -10.662  15.082  0.00  0.00    -0.020 A 
ATOM     15  C   UNL d   1      16.334 -11.171  16.109  0.00  0.00     0.037 A 
ATOM     16 BR   UNL d   1      15.238 -12.697  15.727  0.00  0.00    -0.049 Br
ATOM     17  C   UNL d   1      16.350 -10.569  17.368  0.00  0.00     0.047 A 
ATOM     18 BR   UNL d   1      15.243 -11.279  18.771  0.00  0.00    -0.048 Br
ATOM     19  C   UNL d   1      17.162  -9.459  17.599  0.00  0.00     0.048 A 
ATOM     20 BR   UNL d   1      17.185  -8.628  19.336  0.00  0.00    -0.048 Br
ATOM     21  C   UNL d   1      17.958  -8.950  16.572  0.00  0.00     0.047 A 
ATOM     22 BR   UNL d   1      19.087  -7.422  16.875  0.00  0.00    -0.048 Br
ATOM     23  C   UNL d   1      17.941  -9.553  15.314  0.00  0.00     0.037 A 
ATOM     24 BR   UNL d   1      19.010  -8.901  13.861  0.00  0.00    -0.049 Br
ENDBRANCH   1  14
TORSDOF 3
ENDMDL
MODEL 4
REMARK VINA RESULT:      -1.1      3.247      5.852
REMARK  3 active torsions:
REMARK  status: ('A' for Active; 'I' for Inactive)
REMARK    1  A    between atoms: C_11  and  C_12 
REMARK    2  A    between atoms: C_11  and  C_13 
REMARK    3  A    between atoms: C_12  and  C_14 
ROOT
ATOM      1  C   UNL d   1      14.043  -3.746  14.128  0.00  0.00     0.045 C 
ENDROOT
BRANCH   1   2
ATOM      2  C   UNL d   1      14.331  -5.241  13.911  0.00  0.00     0.045 C 
BRANCH   2   3
ATOM      3  C   UNL d   1      15.587  -5.715  14.599  0.00  0.00    -0.020 A 
ATOM      4  C   UNL d   1      15.494  -6.454  15.773  0.00  0.00     0.037 A 
ATOM      5 BR   UNL d   1      13.747  -6.840  16.465  0.00  0.00    -0.049 Br
ATOM      6  C   UNL d   1      16.654  -6.891  16.410  0.00  0.00     0.047 A 
ATOM      7 BR   UNL d   1      16.515  -7.909  18.036  0.00  0.00    -0.048 Br
ATOM      8  C   UNL d   1      17.904  -6.586  15.870  0.00  0.00     0.048 A 
ATOM      9 BR   UNL d   1      19.506  -7.188  16.749  0.00  0.00    -0.048 Br
ATOM     10  C   UNL d   1      17.991  -5.843  14.692  0.00  0.00     0.047 A 
ATOM     11 BR   UNL d   1      19.706  -5.415  13.932  0.00  0.00    -0.048 Br
ATOM     12  C   UNL d   1      16.829  -5.406  14.056  0.00  0.00     0.037 A 
ATOM     13 BR   UNL d   1      16.883  -4.381  12.435  0.00  0.00    -0.049 Br
ENDBRANCH   2   3
ENDBRANCH   1   2
BRANCH   1  14
ATOM     14  C   UNL d   1      13.180  -3.464  15.323  0.00  0.00    -0.020 A 
ATOM     15  C   UNL d   1      13.751  -2.972  16.495  0.00  0.00     0.037 A 
ATOM     16 BR   UNL d   1      15.646  -2.676  16.518  0.00  0.00    -0.049 Br
ATOM     17  C   UNL d   1      12.949  -2.712  17.607  0.00  0.00     0.047 A 
ATOM     18 BR   UNL d   1      13.755  -2.038  19.219  0.00  0.00    -0.048 Br
ATOM     19  C   UNL d   1      11.575  -2.944  17.546  0.00  0.00     0.048 A 
ATOM     20 BR   UNL d   1      10.468  -2.584  19.080  0.00  0.00    -0.048 Br
ATOM     21  C   UNL d   1      11.003  -3.436  16.373  0.00  0.00     0.047 A 
ATOM     22 BR   UNL d   1       9.109  -3.759  16.269  0.00  0.00    -0.048 Br
ATOM     23  C   UNL d   1      11.806  -3.696  15.261  0.00  0.00     0.037 A 
ATOM     24 BR   UNL d   1      11.081  -4.375  13.620  0.00  0.00    -0.049 Br
ENDBRANCH   1  14
TORSDOF 3
ENDMDL
MODEL 5
REMARK VINA RESULT:      -1.1      3.242      5.832
REMARK  3 active torsions:
REMARK  status: ('A' for Active; 'I' for Inactive)
REMARK    1  A    between atoms: C_11  and  C_12 
REMARK    2  A    between atoms: C_11  and  C_13 
REMARK    3  A    between atoms: C_12  and  C_14 
ROOT
ATOM      1  C   UNL d   1      13.990  -3.743  14.103  0.00  0.00     0.045 C 
ENDROOT
BRANCH   1   2
ATOM      2  C   UNL d   1      14.313  -5.225  13.850  0.00  0.00     0.045 C 
BRANCH   2   3
ATOM      3  C   UNL d   1      15.555  -5.697  14.563  0.00  0.00    -0.020 A 
ATOM      4  C   UNL d   1      16.809  -5.361  14.062  0.00  0.00     0.037 A 
ATOM      5 BR   UNL d   1      16.892  -4.297  12.468  0.00  0.00    -0.049 Br
ATOM      6  C   UNL d   1      17.957  -5.798  14.720  0.00  0.00     0.047 A 
ATOM      7 BR   UNL d   1      19.686  -5.332  14.017  0.00  0.00    -0.048 Br
ATOM      8  C   UNL d   1      17.848  -6.571  15.876  0.00  0.00     0.048 A 
ATOM      9 BR   UNL d   1      19.433  -7.175  16.785  0.00  0.00    -0.048 Br
ATOM     10  C   UNL d   1      16.587  -6.906  16.374  0.00  0.00     0.047 A 
ATOM     11 BR   UNL d   1      16.418  -7.968  17.969  0.00  0.00    -0.048 Br
ATOM     12  C   UNL d   1      15.439  -6.468  15.715  0.00  0.00     0.037 A 
ATOM     13 BR   UNL d   1      13.680  -6.895  16.348  0.00  0.00    -0.049 Br
ENDBRANCH   2   3
ENDBRANCH   1   2
BRANCH   1  14
ATOM     14  C   UNL d   1      13.134  -3.509  15.313  0.00  0.00    -0.020 A 
ATOM     15  C   UNL d   1      13.703  -3.007  16.483  0.00  0.00     0.037 A 
ATOM     16 BR   UNL d   1      15.584  -2.636  16.482  0.00  0.00    -0.049 Br
ATOM     17  C   UNL d   1      12.908  -2.792  17.609  0.00  0.00     0.047 A 
ATOM     18 BR   UNL d   1      13.710  -2.104  19.217  0.00  0.00    -0.048 Br
ATOM     19  C   UNL d   1      11.543  -3.077  17.565  0.00  0.00     0.048 A 
ATOM     20 BR   UNL d   1      10.445  -2.779  19.118  0.00  0.00    -0.048 Br
ATOM     21  C   UNL d   1      10.974  -3.580  16.394  0.00  0.00     0.047 A 
ATOM     22 BR   UNL d   1       9.093  -3.976  16.314  0.00  0.00    -0.048 Br
ATOM     23  C   UNL d   1      11.770  -3.795  15.269  0.00  0.00     0.037 A 
ATOM     24 BR   UNL d   1      11.048  -4.484  13.630  0.00  0.00    -0.049 Br
ENDBRANCH   1  14
TORSDOF 3
ENDMDL
MODEL 6
REMARK VINA RESULT:      -1.1      3.408      6.538
REMARK  3 active torsions:
REMARK  status: ('A' for Active; 'I' for Inactive)
REMARK    1  A    between atoms: C_11  and  C_12 
REMARK    2  A    between atoms: C_11  and  C_13 
REMARK    3  A    between atoms: C_12  and  C_14 
ROOT
ATOM      1  C   UNL d   1      13.402  -4.771  15.246  0.00  0.00     0.045 C 
ENDROOT
BRANCH   1   2
ATOM      2  C   UNL d   1      14.344  -4.549  16.441  0.00  0.00     0.045 C 
BRANCH   2   3
ATOM      3  C   UNL d   1      15.608  -5.370  16.367  0.00  0.00    -0.020 A 
ATOM      4  C   UNL d   1      15.733  -6.515  17.147  0.00  0.00     0.037 A 
ATOM      5 BR   UNL d   1      14.271  -6.998  18.291  0.00  0.00    -0.049 Br
ATOM      6  C   UNL d   1      16.901  -7.273  17.080  0.00  0.00     0.047 A 
ATOM      7 BR   UNL d   1      17.067  -8.853  18.167  0.00  0.00    -0.048 Br
ATOM      8  C   UNL d   1      17.939  -6.883  16.235  0.00  0.00     0.048 A 
ATOM      9 BR   UNL d   1      19.552  -7.930  16.142  0.00  0.00    -0.048 Br
ATOM     10  C   UNL d   1      17.808  -5.733  15.454  0.00  0.00     0.047 A 
ATOM     11 BR   UNL d   1      19.228  -5.183  14.279  0.00  0.00    -0.048 Br
ATOM     12  C   UNL d   1      16.639  -4.975  15.522  0.00  0.00     0.037 A 
ATOM     13 BR   UNL d   1      16.398  -3.386  14.476  0.00  0.00    -0.049 Br
ENDBRANCH   2   3
ENDBRANCH   1   2
BRANCH   1  14
ATOM     14  C   UNL d   1      12.114  -5.450  15.611  0.00  0.00    -0.020 A 
ATOM     15  C   UNL d   1      11.096  -4.726  16.231  0.00  0.00     0.037 A 
ATOM     16 BR   UNL d   1      11.403  -2.868  16.591  0.00  0.00    -0.049 Br
ATOM     17  C   UNL d   1       9.899  -5.358  16.572  0.00  0.00     0.047 A 
ATOM     18 BR   UNL d   1       8.507  -4.346  17.432  0.00  0.00    -0.048 Br
ATOM     19  C   UNL d   1       9.720  -6.712  16.292  0.00  0.00     0.048 A 
ATOM     20 BR   UNL d   1       8.069  -7.583  16.762  0.00  0.00    -0.048 Br
ATOM     21  C   UNL d   1      10.739  -7.436  15.671  0.00  0.00     0.047 A 
ATOM     22 BR   UNL d   1      10.509  -9.304  15.274  0.00  0.00    -0.048 Br
ATOM     23  C   UNL d   1      11.935  -6.804  15.331  0.00  0.00     0.037 A 
ATOM     24 BR   UNL d   1      13.374  -7.744  14.477  0.00  0.00    -0.049 Br
ENDBRANCH   1  14
TORSDOF 3
ENDMDL
MODEL 7
REMARK VINA RESULT:      -1.0      2.883      5.503
REMARK  3 active torsions:
REMARK  status: ('A' for Active; 'I' for Inactive)
REMARK    1  A    between atoms: C_11  and  C_12 
REMARK    2  A    between atoms: C_11  and  C_13 
REMARK    3  A    between atoms: C_12  and  C_14 
ROOT
ATOM      1  C   UNL d   1      16.240  -4.111  12.949  0.00  0.00     0.045 C 
ENDROOT
BRANCH   1   2
ATOM      2  C   UNL d   1      16.072  -5.639  12.940  0.00  0.00     0.045 C 
BRANCH   2   3
ATOM      3  C   UNL d   1      16.326  -6.277  14.284  0.00  0.00    -0.020 A 
ATOM      4  C   UNL d   1      17.630  -6.420  14.745  0.00  0.00     0.037 A 
ATOM      5 BR   UNL d   1      19.060  -5.789  13.632  0.00  0.00    -0.049 Br
ATOM      6  C   UNL d   1      17.865  -7.011  15.985  0.00  0.00     0.047 A 
ATOM      7 BR   UNL d   1      19.673  -7.210  16.612  0.00  0.00    -0.048 Br
ATOM      8  C   UNL d   1      16.794  -7.456  16.760  0.00  0.00     0.048 A 
ATOM      9 BR   UNL d   1      17.118  -8.272  18.473  0.00  0.00    -0.048 Br
ATOM     10  C   UNL d   1      15.487  -7.310  16.293  0.00  0.00     0.047 A 
ATOM     11 BR   UNL d   1      13.998  -7.915  17.350  0.00  0.00    -0.048 Br
ATOM     12  C   UNL d   1      15.253  -6.719  15.051  0.00  0.00     0.037 A 
ATOM     13 BR   UNL d   1      13.482  -6.490  14.353  0.00  0.00    -0.049 Br
ENDBRANCH   2   3
ENDBRANCH   1   2
BRANCH   1  14
ATOM     14  C   UNL d   1      14.940  -3.360  12.962  0.00  0.00    -0.020 A 
ATOM     15  C   UNL d   1      14.209  -3.212  11.784  0.00  0.00     0.037 A 
ATOM     16 BR   UNL d   1      14.918  -3.991  10.181  0.00  0.00    -0.049 Br
ATOM     17  C   UNL d   1      13.002  -2.513  11.795  0.00  0.00     0.047 A 
ATOM     18 BR   UNL d   1      12.008  -2.314  10.159  0.00  0.00    -0.048 Br
ATOM     19  C   UNL d   1      12.525  -1.962  12.984  0.00  0.00     0.048 A 
ATOM     20 BR   UNL d   1      10.859  -0.997  12.999  0.00  0.00    -0.048 Br
ATOM     21  C   UNL d   1      13.257  -2.109  14.163  0.00  0.00     0.047 A 
ATOM     22 BR   UNL d   1      12.613  -1.359  15.814  0.00  0.00    -0.048 Br
ATOM     23  C   UNL d   1      14.464  -2.809  14.151  0.00  0.00     0.037 A 
ATOM     24 BR   UNL d   1      15.516  -3.046  15.738  0.00  0.00    -0.049 Br
ENDBRANCH   1  14
TORSDOF 3
ENDMDL
MODEL 8
REMARK VINA RESULT:      -1.0      3.602      7.479
REMARK  3 active torsions:
REMARK  status: ('A' for Active; 'I' for Inactive)
REMARK    1  A    between atoms: C_11  and  C_12 
REMARK    2  A    between atoms: C_11  and  C_13 
REMARK    3  A    between atoms: C_12  and  C_14 
ROOT
ATOM      1  C   UNL d   1      14.254  -5.881  13.854  0.00  0.00     0.045 C 
ENDROOT
BRANCH   1   2
ATOM      2  C   UNL d   1      14.108  -6.574  12.489  0.00  0.00     0.045 C 
BRANCH   2   3
ATOM      3  C   UNL d   1      14.620  -5.742  11.338  0.00  0.00    -0.020 A 
ATOM      4  C   UNL d   1      13.860  -4.678  10.864  0.00  0.00     0.037 A 
ATOM      5 BR   UNL d   1      12.177  -4.317  11.712  0.00  0.00    -0.049 Br
ATOM      6  C   UNL d   1      14.331  -3.911   9.801  0.00  0.00     0.047 A 
ATOM      7 BR   UNL d   1      13.271  -2.444   9.148  0.00  0.00    -0.048 Br
ATOM      8  C   UNL d   1      15.561  -4.211   9.214  0.00  0.00     0.048 A 
ATOM      9 BR   UNL d   1      16.212  -3.152   7.745  0.00  0.00    -0.048 Br
ATOM     10  C   UNL d   1      16.319  -5.280   9.694  0.00  0.00     0.047 A 
ATOM     11 BR   UNL d   1      18.019  -5.707   8.899  0.00  0.00    -0.048 Br
ATOM     12  C   UNL d   1      15.846  -6.048  10.758  0.00  0.00     0.037 A 
ATOM     13 BR   UNL d   1      16.840  -7.529  11.462  0.00  0.00    -0.049 Br
ENDBRANCH   2   3
ENDBRANCH   1   2
BRANCH   1  14
ATOM     14  C   UNL d   1      15.551  -6.179  14.547  0.00  0.00    -0.020 A 
ATOM     15  C   UNL d   1      16.567  -5.224  14.567  0.00  0.00     0.037 A 
ATOM     16 BR   UNL d   1      16.245  -3.549  13.689  0.00  0.00    -0.049 Br
ATOM     17  C   UNL d   1      17.774  -5.501  15.209  0.00  0.00     0.047 A 
ATOM     18 BR   UNL d   1      19.167  -4.174  15.221  0.00  0.00    -0.048 Br
ATOM     19  C   UNL d   1      17.965  -6.733  15.833  0.00  0.00     0.048 A 
ATOM     20 BR   UNL d   1      19.630  -7.116  16.721  0.00  0.00    -0.048 Br
ATOM     21  C   UNL d   1      16.949  -7.690  15.814  0.00  0.00     0.047 A 
ATOM     22 BR   UNL d   1      17.193  -9.393  16.673  0.00  0.00    -0.048 Br
ATOM     23  C   UNL d   1      15.742  -7.411  15.172  0.00  0.00     0.037 A 
ATOM     24 BR   UNL d   1      14.307  -8.683  15.109  0.00  0.00    -0.049 Br
ENDBRANCH   1  14
TORSDOF 3
ENDMDL
MODEL 9
REMARK VINA RESULT:      -1.0      2.335      4.838
REMARK  3 active torsions:
REMARK  status: ('A' for Active; 'I' for Inactive)
REMARK    1  A    between atoms: C_11  and  C_12 
REMARK    2  A    between atoms: C_11  and  C_13 
REMARK    3  A    between atoms: C_12  and  C_14 
ROOT
ATOM      1  C   UNL d   1      17.146  -5.664  13.044  0.00  0.00     0.045 C 
ENDROOT
BRANCH   1   2
ATOM      2  C   UNL d   1      17.721  -5.629  14.469  0.00  0.00     0.045 C 
BRANCH   2   3
ATOM      3  C   UNL d   1      17.560  -6.933  15.211  0.00  0.00    -0.020 A 
ATOM      4  C   UNL d   1      16.572  -7.057  16.182  0.00  0.00     0.037 A 
ATOM      5 BR   UNL d   1      15.447  -5.542  16.531  0.00  0.00    -0.049 Br
ATOM      6  C   UNL d   1      16.424  -8.261  16.869  0.00  0.00     0.047 A 
ATOM      7 BR   UNL d   1      15.057  -8.422  18.213  0.00  0.00    -0.048 Br
ATOM      8  C   UNL d   1      17.266  -9.336  16.583  0.00  0.00     0.048 A 
ATOM      9 BR   UNL d   1      17.062 -10.998  17.531  0.00  0.00    -0.048 Br
ATOM     10  C   UNL d   1      18.256  -9.205  15.608  0.00  0.00     0.047 A 
ATOM     11 BR   UNL d   1      19.423 -10.679  15.198  0.00  0.00    -0.048 Br
ATOM     12  C   UNL d   1      18.403  -8.000  14.921  0.00  0.00     0.037 A 
ATOM     13 BR   UNL d   1      19.744  -7.758  13.572  0.00  0.00    -0.049 Br
ENDBRANCH   2   3
ENDBRANCH   1   2
BRANCH   1  14
ATOM     14  C   UNL d   1      15.694  -5.292  12.968  0.00  0.00    -0.020 A 
ATOM     15  C   UNL d   1      15.311  -3.955  13.070  0.00  0.00     0.037 A 
ATOM     16 BR   UNL d   1      16.686  -2.639  13.306  0.00  0.00    -0.049 Br
ATOM     17  C   UNL d   1      13.961  -3.608  13.003  0.00  0.00     0.047 A 
ATOM     18 BR   UNL d   1      13.449  -1.760  13.151  0.00  0.00    -0.048 Br
ATOM     19  C   UNL d   1      12.994  -4.599  12.832  0.00  0.00     0.048 A 
ATOM     20 BR   UNL d   1      11.131  -4.121  12.738  0.00  0.00    -0.048 Br
ATOM     21  C   UNL d   1      13.377  -5.937  12.730  0.00  0.00     0.047 A 
ATOM     22 BR   UNL d   1      12.058  -7.316  12.491  0.00  0.00    -0.048 Br
ATOM     23  C   UNL d   1      14.727  -6.282  12.798  0.00  0.00     0.037 A 
ATOM     24 BR   UNL d   1      15.318  -8.103  12.666  0.00  0.00    -0.049 Br
ENDBRANCH   1  14
TORSDOF 3
ENDMDL
