MODEL 1
REMARK VINA RESULT:      -2.2      0.000      0.000
REMARK  6 active torsions:
REMARK  status: ('A' for Active; 'I' for Inactive)
REMARK    1  A    between atoms: N_8  and  C_18 
REMARK    2  A    between atoms: N_9  and  N_11 
REMARK       I    between atoms: N_9  and  C_22 
REMARK    3  A    between atoms: N_10  and  C_25 
REMARK       I    between atoms: N_11  and  C_27 
REMARK    4  A    between atoms: N_12  and  C_26 
REMARK       I    between atoms: N_12  and  C_27 
REMARK    5  A    between atoms: C_19  and  C_22 
REMARK    6  A    between atoms: C_28  and  C_33 
ROOT
ATOM      1  O   UNL d   1      16.851  -5.283  11.422  0.00  0.00    -0.267 OA
ATOM      2  N   UNL d   1      18.759  -4.162  10.717  0.00  0.00    -0.263 N 
ATOM      3  C   UNL d   1      17.995  -4.882  11.613  0.00  0.00     0.260 C 
ATOM      4  H   UNL d   1      19.705  -3.844  10.898  0.00  0.00     0.190 HD
ENDROOT
BRANCH   2   5
ATOM      5  N   UNL d   1      18.225  -3.848   9.492  0.00  0.00    -0.248 N 
ATOM      6  C   UNL d   1      18.940  -4.163   8.337  0.00  0.00     0.339 C 
ATOM      7  O   UNL d   1      20.038  -4.715   8.354  0.00  0.00    -0.245 OA
ATOM      8  N   UNL d   1      18.226  -3.764   7.204  0.00  0.00    -0.308 N 
ATOM      9  H   UNL d   1      17.326  -3.319   7.368  0.00  0.00     0.170 HD
ATOM     10  H   UNL d   1      17.316  -3.398   9.484  0.00  0.00     0.192 HD
BRANCH   8  11
ATOM     11  C   UNL d   1      18.600  -3.901   5.847  0.00  0.00     0.037 A 
ATOM     12  C   UNL d   1      18.357  -5.098   5.173  0.00  0.00     0.045 A 
ATOM     13  C   UNL d   1      18.727  -5.232   3.835  0.00  0.00     0.050 A 
ATOM     14  C   UNL d   1      19.340  -4.170   3.171  0.00  0.00     0.016 A 
ATOM     15  C   UNL d   1      19.583  -2.973   3.844  0.00  0.00     0.003 A 
ATOM     16  C   UNL d   1      19.213  -2.839   5.182  0.00  0.00     0.029 A 
BRANCH  13  17
ATOM     17  C   UNL d   1      18.467  -6.512   3.115  0.00  0.00     0.417 C 
ATOM     18  F   UNL d   1      19.428  -7.462   3.322  0.00  0.00    -0.166 F 
ATOM     19  F   UNL d   1      18.394  -6.371   1.758  0.00  0.00    -0.166 F 
ATOM     20  F   UNL d   1      17.290  -7.095   3.486  0.00  0.00    -0.166 F 
ENDBRANCH  13  17
ENDBRANCH   8  11
ENDBRANCH   2   5
BRANCH   3  21
ATOM     21  C   UNL d   1      18.732  -5.130  12.878  0.00  0.00     0.078 C 
ATOM     22  C   UNL d   1      18.489  -4.376  13.960  0.00  0.00    -0.071 C 
ATOM     23  C   UNL d   1      19.199  -4.571  15.271  0.00  0.00     0.054 C 
ATOM     24  C   UNL d   1      17.500  -3.245  13.966  0.00  0.00     0.054 C 
ATOM     25  C   UNL d   1      19.851  -3.266  15.730  0.00  0.00     0.127 C 
ATOM     26  N   UNL d   1      18.877  -2.160  15.709  0.00  0.00    -0.380 N 
ATOM     27  C   UNL d   1      18.160  -1.948  14.442  0.00  0.00     0.127 C 
BRANCH  26  28
ATOM     28  C   UNL d   1      19.119  -1.072  16.554  0.00  0.00     0.030 A 
ATOM     29  C   UNL d   1      20.101  -0.137  16.224  0.00  0.00     0.032 A 
ATOM     30  C   UNL d   1      20.343   0.948  17.065  0.00  0.00     0.038 A 
ATOM     31  C   UNL d   1      19.603   1.098  18.239  0.00  0.00     0.103 A 
ATOM     32  C   UNL d   1      18.622   0.164  18.570  0.00  0.00     0.038 A 
ATOM     33  C   UNL d   1      18.380  -0.921  17.727  0.00  0.00     0.032 A 
BRANCH  31  34
ATOM     34  N   UNL d   1      19.850   2.202  19.098  0.00  0.00    -0.116 N 
ATOM     35  O   UNL d   1      20.593   3.130  18.697  0.00  0.00    -0.532 OA
ATOM     36  O   UNL d   1      19.318   2.220  20.235  0.00  0.00    -0.532 OA
ENDBRANCH  31  34
ENDBRANCH  26  28
ENDBRANCH   3  21
TORSDOF 6
ENDMDL
MODEL 2
REMARK VINA RESULT:      -1.7      7.054     11.949
REMARK  6 active torsions:
REMARK  status: ('A' for Active; 'I' for Inactive)
REMARK    1  A    between atoms: N_8  and  C_18 
REMARK    2  A    between atoms: N_9  and  N_11 
REMARK       I    between atoms: N_9  and  C_22 
REMARK    3  A    between atoms: N_10  and  C_25 
REMARK       I    between atoms: N_11  and  C_27 
REMARK    4  A    between atoms: N_12  and  C_26 
REMARK       I    between atoms: N_12  and  C_27 
REMARK    5  A    between atoms: C_19  and  C_22 
REMARK    6  A    between atoms: C_28  and  C_33 
ROOT
ATOM      1  O   UNL d   1      13.341  -6.438  10.968  0.00  0.00    -0.267 OA
ATOM      2  N   UNL d   1      15.432  -5.476  11.280  0.00  0.00    -0.263 N 
ATOM      3  C   UNL d   1      14.160  -5.551  10.748  0.00  0.00     0.260 C 
ATOM      4  H   UNL d   1      16.090  -4.729  11.084  0.00  0.00     0.190 HD
ENDROOT
BRANCH   2   5
ATOM      5  N   UNL d   1      15.853  -6.464  12.135  0.00  0.00    -0.248 N 
ATOM      6  C   UNL d   1      16.579  -6.115  13.273  0.00  0.00     0.339 C 
ATOM      7  O   UNL d   1      16.867  -4.954  13.558  0.00  0.00    -0.245 OA
ATOM      8  N   UNL d   1      16.908  -7.258  14.005  0.00  0.00    -0.308 N 
ATOM      9  H   UNL d   1      16.589  -8.147  13.627  0.00  0.00     0.170 HD
ATOM     10  H   UNL d   1      15.607  -7.418  11.897  0.00  0.00     0.192 HD
BRANCH   8  11
ATOM     11  C   UNL d   1      17.635  -7.337  15.216  0.00  0.00     0.037 A 
ATOM     12  C   UNL d   1      17.006  -7.773  16.381  0.00  0.00     0.045 A 
ATOM     13  C   UNL d   1      17.723  -7.850  17.575  0.00  0.00     0.050 A 
ATOM     14  C   UNL d   1      19.070  -7.490  17.603  0.00  0.00     0.016 A 
ATOM     15  C   UNL d   1      19.701  -7.054  16.437  0.00  0.00     0.003 A 
ATOM     16  C   UNL d   1      18.983  -6.978  15.244  0.00  0.00     0.029 A 
BRANCH  13  17
ATOM     17  C   UNL d   1      17.050  -8.316  18.821  0.00  0.00     0.417 C 
ATOM     18  F   UNL d   1      16.676  -9.629  18.783  0.00  0.00    -0.166 F 
ATOM     19  F   UNL d   1      15.905  -7.629  19.114  0.00  0.00    -0.166 F 
ATOM     20  F   UNL d   1      17.842  -8.191  19.925  0.00  0.00    -0.166 F 
ENDBRANCH  13  17
ENDBRANCH   8  11
ENDBRANCH   2   5
BRANCH   3  21
ATOM     21  C   UNL d   1      13.878  -4.402   9.851  0.00  0.00     0.078 C 
ATOM     22  C   UNL d   1      14.346  -4.395   8.595  0.00  0.00    -0.071 C 
ATOM     23  C   UNL d   1      14.098  -3.266   7.634  0.00  0.00     0.054 C 
ATOM     24  C   UNL d   1      15.184  -5.505   8.026  0.00  0.00     0.054 C 
ATOM     25  C   UNL d   1      15.420  -2.734   7.077  0.00  0.00     0.127 C 
ATOM     26  N   UNL d   1      16.242  -3.835   6.544  0.00  0.00    -0.380 N 
ATOM     27  C   UNL d   1      16.496  -4.959   7.457  0.00  0.00     0.127 C 
BRANCH  26  28
ATOM     28  C   UNL d   1      17.189  -3.516   5.564  0.00  0.00     0.030 A 
ATOM     29  C   UNL d   1      17.384  -4.369   4.477  0.00  0.00     0.032 A 
ATOM     30  C   UNL d   1      18.326  -4.051   3.501  0.00  0.00     0.038 A 
ATOM     31  C   UNL d   1      19.076  -2.879   3.610  0.00  0.00     0.103 A 
ATOM     32  C   UNL d   1      18.883  -2.027   4.696  0.00  0.00     0.038 A 
ATOM     33  C   UNL d   1      17.939  -2.345   5.673  0.00  0.00     0.032 A 
BRANCH  31  34
ATOM     34  N   UNL d   1      20.038  -2.556   2.617  0.00  0.00    -0.116 N 
ATOM     35  O   UNL d   1      20.593  -1.431   2.650  0.00  0.00    -0.532 OA
ATOM     36  O   UNL d   1      20.305  -3.403   1.730  0.00  0.00    -0.532 OA
ENDBRANCH  31  34
ENDBRANCH  26  28
ENDBRANCH   3  21
TORSDOF 6
ENDMDL
MODEL 3
REMARK VINA RESULT:      -1.6      4.560      6.919
REMARK  6 active torsions:
REMARK  status: ('A' for Active; 'I' for Inactive)
REMARK    1  A    between atoms: N_8  and  C_18 
REMARK    2  A    between atoms: N_9  and  N_11 
REMARK       I    between atoms: N_9  and  C_22 
REMARK    3  A    between atoms: N_10  and  C_25 
REMARK       I    between atoms: N_11  and  C_27 
REMARK    4  A    between atoms: N_12  and  C_26 
REMARK       I    between atoms: N_12  and  C_27 
REMARK    5  A    between atoms: C_19  and  C_22 
REMARK    6  A    between atoms: C_28  and  C_33 
ROOT
ATOM      1  O   UNL d   1      16.634  -6.044   5.642  0.00  0.00    -0.267 OA
ATOM      2  N   UNL d   1      18.466  -5.063   4.606  0.00  0.00    -0.263 N 
ATOM      3  C   UNL d   1      17.487  -5.164   5.573  0.00  0.00     0.260 C 
ATOM      4  H   UNL d   1      19.163  -4.326   4.572  0.00  0.00     0.190 HD
ENDROOT
BRANCH   2   5
ATOM      5  N   UNL d   1      18.523  -6.013   3.617  0.00  0.00    -0.248 N 
ATOM      6  C   UNL d   1      18.799  -5.619   2.308  0.00  0.00     0.339 C 
ATOM      7  O   UNL d   1      18.998  -4.449   1.986  0.00  0.00    -0.245 OA
ATOM      8  N   UNL d   1      18.813  -6.730   1.461  0.00  0.00    -0.308 N 
ATOM      9  H   UNL d   1      18.628  -7.632   1.894  0.00  0.00     0.170 HD
ATOM     10  H   UNL d   1      18.364  -6.976   3.891  0.00  0.00     0.192 HD
BRANCH   8  11
ATOM     11  C   UNL d   1      19.053  -6.759   0.068  0.00  0.00     0.037 A 
ATOM     12  C   UNL d   1      17.989  -6.642  -0.826  0.00  0.00     0.045 A 
ATOM     13  C   UNL d   1      18.227  -6.670  -2.200  0.00  0.00     0.050 A 
ATOM     14  C   UNL d   1      19.529  -6.815  -2.680  0.00  0.00     0.016 A 
ATOM     15  C   UNL d   1      20.593  -6.930  -1.786  0.00  0.00     0.003 A 
ATOM     16  C   UNL d   1      20.355  -6.902  -0.412  0.00  0.00     0.029 A 
BRANCH  13  17
ATOM     17  C   UNL d   1      17.089  -6.547  -3.156  0.00  0.00     0.417 C 
ATOM     18  F   UNL d   1      17.180  -5.459  -3.978  0.00  0.00    -0.166 F 
ATOM     19  F   UNL d   1      15.872  -6.430  -2.546  0.00  0.00    -0.166 F 
ATOM     20  F   UNL d   1      16.980  -7.625  -3.986  0.00  0.00    -0.166 F 
ENDBRANCH  13  17
ENDBRANCH   8  11
ENDBRANCH   2   5
BRANCH   3  21
ATOM     21  C   UNL d   1      17.579  -4.056   6.557  0.00  0.00     0.078 C 
ATOM     22  C   UNL d   1      18.378  -4.166   7.627  0.00  0.00    -0.071 C 
ATOM     23  C   UNL d   1      18.518  -3.084   8.661  0.00  0.00     0.054 C 
ATOM     24  C   UNL d   1      19.198  -5.392   7.915  0.00  0.00     0.054 C 
ATOM     25  C   UNL d   1      18.225  -3.633  10.058  0.00  0.00     0.127 C 
ATOM     26  N   UNL d   1      19.018  -4.848  10.319  0.00  0.00    -0.380 N 
ATOM     27  C   UNL d   1      18.908  -5.923   9.321  0.00  0.00     0.127 C 
BRANCH  26  28
ATOM     28  C   UNL d   1      19.281  -5.171  11.654  0.00  0.00     0.030 A 
ATOM     29  C   UNL d   1      19.512  -4.158  12.585  0.00  0.00     0.032 A 
ATOM     30  C   UNL d   1      19.773  -4.479  13.916  0.00  0.00     0.038 A 
ATOM     31  C   UNL d   1      19.805  -5.816  14.317  0.00  0.00     0.103 A 
ATOM     32  C   UNL d   1      19.575  -6.829  13.387  0.00  0.00     0.038 A 
ATOM     33  C   UNL d   1      19.312  -6.506  12.056  0.00  0.00     0.032 A 
BRANCH  31  34
ATOM     34  N   UNL d   1      20.072  -6.144  15.673  0.00  0.00    -0.116 N 
ATOM     35  O   UNL d   1      20.591  -5.278  16.418  0.00  0.00    -0.532 OA
ATOM     36  O   UNL d   1      19.784  -7.293  16.089  0.00  0.00    -0.532 OA
ENDBRANCH  31  34
ENDBRANCH  26  28
ENDBRANCH   3  21
TORSDOF 6
ENDMDL
MODEL 4
REMARK VINA RESULT:      -1.5      5.840     10.493
REMARK  6 active torsions:
REMARK  status: ('A' for Active; 'I' for Inactive)
REMARK    1  A    between atoms: N_8  and  C_18 
REMARK    2  A    between atoms: N_9  and  N_11 
REMARK       I    between atoms: N_9  and  C_22 
REMARK    3  A    between atoms: N_10  and  C_25 
REMARK       I    between atoms: N_11  and  C_27 
REMARK    4  A    between atoms: N_12  and  C_26 
REMARK       I    between atoms: N_12  and  C_27 
REMARK    5  A    between atoms: C_19  and  C_22 
REMARK    6  A    between atoms: C_28  and  C_33 
ROOT
ATOM      1  O   UNL d   1      15.126  -4.189  16.190  0.00  0.00    -0.267 OA
ATOM      2  N   UNL d   1      17.223  -5.002  15.610  0.00  0.00    -0.263 N 
ATOM      3  C   UNL d   1      16.221  -4.053  15.654  0.00  0.00     0.260 C 
ATOM      4  H   UNL d   1      18.123  -4.864  15.162  0.00  0.00     0.190 HD
ENDROOT
BRANCH   2   5
ATOM      5  N   UNL d   1      17.011  -6.218  16.210  0.00  0.00    -0.248 N 
ATOM      6  C   UNL d   1      17.166  -7.383  15.459  0.00  0.00     0.339 C 
ATOM      7  O   UNL d   1      17.488  -7.382  14.273  0.00  0.00    -0.245 OA
ATOM      8  N   UNL d   1      16.908  -8.506  16.251  0.00  0.00    -0.308 N 
ATOM      9  H   UNL d   1      16.653  -8.329  17.219  0.00  0.00     0.170 HD
ATOM     10  H   UNL d   1      16.752  -6.213  17.190  0.00  0.00     0.192 HD
BRANCH   8  11
ATOM     11  C   UNL d   1      16.955  -9.867  15.871  0.00  0.00     0.037 A 
ATOM     12  C   UNL d   1      18.143 -10.586  15.999  0.00  0.00     0.045 A 
ATOM     13  C   UNL d   1      18.189 -11.929  15.624  0.00  0.00     0.050 A 
ATOM     14  C   UNL d   1      17.047 -12.552  15.122  0.00  0.00     0.016 A 
ATOM     15  C   UNL d   1      15.859 -11.834  14.994  0.00  0.00     0.003 A 
ATOM     16  C   UNL d   1      15.813 -10.491  15.369  0.00  0.00     0.029 A 
BRANCH  13  17
ATOM     17  C   UNL d   1      19.460 -12.698  15.760  0.00  0.00     0.417 C 
ATOM     18  F   UNL d   1      20.582 -11.934  15.606  0.00  0.00    -0.166 F 
ATOM     19  F   UNL d   1      19.589 -13.707  14.848  0.00  0.00    -0.166 F 
ATOM     20  F   UNL d   1      19.586 -13.292  16.982  0.00  0.00    -0.166 F 
ENDBRANCH  13  17
ENDBRANCH   8  11
ENDBRANCH   2   5
BRANCH   3  21
ATOM     21  C   UNL d   1      16.626  -2.805  14.959  0.00  0.00     0.078 C 
ATOM     22  C   UNL d   1      16.524  -2.710  13.625  0.00  0.00    -0.071 C 
ATOM     23  C   UNL d   1      16.915  -1.478  12.859  0.00  0.00     0.054 C 
ATOM     24  C   UNL d   1      16.029  -3.834  12.760  0.00  0.00     0.054 C 
ATOM     25  C   UNL d   1      17.927  -1.824  11.765  0.00  0.00     0.127 C 
ATOM     26  N   UNL d   1      17.440  -2.942  10.938  0.00  0.00    -0.380 N 
ATOM     27  C   UNL d   1      17.042  -4.160  11.660  0.00  0.00     0.127 C 
BRANCH  26  28
ATOM     28  C   UNL d   1      17.941  -3.045   9.635  0.00  0.00     0.030 A 
ATOM     29  C   UNL d   1      18.382  -1.904   8.965  0.00  0.00     0.032 A 
ATOM     30  C   UNL d   1      18.882  -2.006   7.668  0.00  0.00     0.038 A 
ATOM     31  C   UNL d   1      18.939  -3.251   7.038  0.00  0.00     0.103 A 
ATOM     32  C   UNL d   1      18.497  -4.392   7.708  0.00  0.00     0.038 A 
ATOM     33  C   UNL d   1      17.998  -4.289   9.006  0.00  0.00     0.032 A 
BRANCH  31  34
ATOM     34  N   UNL d   1      19.446  -3.356   5.716  0.00  0.00    -0.116 N 
ATOM     35  O   UNL d   1      20.584  -2.893   5.463  0.00  0.00    -0.532 OA
ATOM     36  O   UNL d   1      18.742  -3.908   4.836  0.00  0.00    -0.532 OA
ENDBRANCH  31  34
ENDBRANCH  26  28
ENDBRANCH   3  21
TORSDOF 6
ENDMDL
MODEL 5
REMARK VINA RESULT:      -1.5      4.609      7.573
REMARK  6 active torsions:
REMARK  status: ('A' for Active; 'I' for Inactive)
REMARK    1  A    between atoms: N_8  and  C_18 
REMARK    2  A    between atoms: N_9  and  N_11 
REMARK       I    between atoms: N_9  and  C_22 
REMARK    3  A    between atoms: N_10  and  C_25 
REMARK       I    between atoms: N_11  and  C_27 
REMARK    4  A    between atoms: N_12  and  C_26 
REMARK       I    between atoms: N_12  and  C_27 
REMARK    5  A    between atoms: C_19  and  C_22 
REMARK    6  A    between atoms: C_28  and  C_33 
ROOT
ATOM      1  O   UNL d   1      15.086  -3.755  11.946  0.00  0.00    -0.267 OA
ATOM      2  N   UNL d   1      17.007  -2.457  12.083  0.00  0.00    -0.263 N 
ATOM      3  C   UNL d   1      16.075  -3.358  12.555  0.00  0.00     0.260 C 
ATOM      4  H   UNL d   1      17.819  -2.146  12.606  0.00  0.00     0.190 HD
ENDROOT
BRANCH   2   5
ATOM      5  N   UNL d   1      16.849  -1.938  10.822  0.00  0.00    -0.248 N 
ATOM      6  C   UNL d   1      17.959  -1.834   9.984  0.00  0.00     0.339 C 
ATOM      7  O   UNL d   1      19.088  -2.186  10.316  0.00  0.00    -0.245 OA
ATOM      8  N   UNL d   1      17.585  -1.286   8.754  0.00  0.00    -0.308 N 
ATOM      9  H   UNL d   1      16.602  -1.049   8.642  0.00  0.00     0.170 HD
ATOM     10  H   UNL d   1      15.914  -1.655  10.552  0.00  0.00     0.192 HD
BRANCH   8  11
ATOM     11  C   UNL d   1      18.409  -1.017   7.636  0.00  0.00     0.037 A 
ATOM     12  C   UNL d   1      18.628  -2.005   6.677  0.00  0.00     0.045 A 
ATOM     13  C   UNL d   1      19.440  -1.739   5.575  0.00  0.00     0.050 A 
ATOM     14  C   UNL d   1      20.033  -0.485   5.431  0.00  0.00     0.016 A 
ATOM     15  C   UNL d   1      19.812   0.504   6.389  0.00  0.00     0.003 A 
ATOM     16  C   UNL d   1      19.000   0.238   7.491  0.00  0.00     0.029 A 
BRANCH  13  17
ATOM     17  C   UNL d   1      19.676  -2.797   4.550  0.00  0.00     0.417 C 
ATOM     18  F   UNL d   1      18.554  -3.506   4.226  0.00  0.00    -0.166 F 
ATOM     19  F   UNL d   1      20.591  -3.736   4.933  0.00  0.00    -0.166 F 
ATOM     20  F   UNL d   1      20.143  -2.293   3.371  0.00  0.00    -0.166 F 
ENDBRANCH  13  17
ENDBRANCH   8  11
ENDBRANCH   2   5
BRANCH   3  21
ATOM     21  C   UNL d   1      16.407  -3.812  13.930  0.00  0.00     0.078 C 
ATOM     22  C   UNL d   1      17.176  -4.894  14.117  0.00  0.00    -0.071 C 
ATOM     23  C   UNL d   1      17.550  -5.408  15.479  0.00  0.00     0.054 C 
ATOM     24  C   UNL d   1      17.725  -5.715  12.984  0.00  0.00     0.054 C 
ATOM     25  C   UNL d   1      17.163  -6.880  15.623  0.00  0.00     0.127 C 
ATOM     26  N   UNL d   1      17.687  -7.671  14.495  0.00  0.00    -0.380 N 
ATOM     27  C   UNL d   1      17.344  -7.189  13.148  0.00  0.00     0.127 C 
BRANCH  26  28
ATOM     28  C   UNL d   1      17.890  -9.039  14.706  0.00  0.00     0.030 A 
ATOM     29  C   UNL d   1      18.210  -9.871  13.633  0.00  0.00     0.032 A 
ATOM     30  C   UNL d   1      18.413 -11.234  13.843  0.00  0.00     0.038 A 
ATOM     31  C   UNL d   1      18.296 -11.767  15.128  0.00  0.00     0.103 A 
ATOM     32  C   UNL d   1      17.976 -10.936  16.201  0.00  0.00     0.038 A 
ATOM     33  C   UNL d   1      17.773  -9.572  15.990  0.00  0.00     0.032 A 
BRANCH  31  34
ATOM     34  N   UNL d   1      18.501 -13.155  15.342  0.00  0.00    -0.116 N 
ATOM     35  O   UNL d   1      17.956 -13.978  14.568  0.00  0.00    -0.532 OA
ATOM     36  O   UNL d   1      19.223 -13.522  16.302  0.00  0.00    -0.532 OA
ENDBRANCH  31  34
ENDBRANCH  26  28
ENDBRANCH   3  21
TORSDOF 6
ENDMDL
MODEL 6
REMARK VINA RESULT:      -1.5      7.272     10.847
REMARK  6 active torsions:
REMARK  status: ('A' for Active; 'I' for Inactive)
REMARK    1  A    between atoms: N_8  and  C_18 
REMARK    2  A    between atoms: N_9  and  N_11 
REMARK       I    between atoms: N_9  and  C_22 
REMARK    3  A    between atoms: N_10  and  C_25 
REMARK       I    between atoms: N_11  and  C_27 
REMARK    4  A    between atoms: N_12  and  C_26 
REMARK       I    between atoms: N_12  and  C_27 
REMARK    5  A    between atoms: C_19  and  C_22 
REMARK    6  A    between atoms: C_28  and  C_33 
ROOT
ATOM      1  O   UNL d   1      14.640  -4.113  15.929  0.00  0.00    -0.267 OA
ATOM      2  N   UNL d   1      16.659  -5.006  15.207  0.00  0.00    -0.263 N 
ATOM      3  C   UNL d   1      15.808  -3.983  15.575  0.00  0.00     0.260 C 
ATOM      4  H   UNL d   1      17.623  -4.873  14.920  0.00  0.00     0.190 HD
ENDROOT
BRANCH   2   5
ATOM      5  N   UNL d   1      16.192  -6.297  15.227  0.00  0.00    -0.248 N 
ATOM      6  C   UNL d   1      16.970  -7.292  15.819  0.00  0.00     0.339 C 
ATOM      7  O   UNL d   1      18.065  -7.075  16.332  0.00  0.00    -0.245 OA
ATOM      8  N   UNL d   1      16.319  -8.526  15.737  0.00  0.00    -0.308 N 
ATOM      9  H   UNL d   1      15.411  -8.530  15.278  0.00  0.00     0.170 HD
ATOM     10  H   UNL d   1      15.286  -6.468  14.808  0.00  0.00     0.192 HD
BRANCH   8  11
ATOM     11  C   UNL d   1      16.767  -9.779  16.214  0.00  0.00     0.037 A 
ATOM     12  C   UNL d   1      16.655 -10.092  17.568  0.00  0.00     0.045 A 
ATOM     13  C   UNL d   1      17.098 -11.328  18.038  0.00  0.00     0.050 A 
ATOM     14  C   UNL d   1      17.653 -12.252  17.153  0.00  0.00     0.016 A 
ATOM     15  C   UNL d   1      17.764 -11.941  15.798  0.00  0.00     0.003 A 
ATOM     16  C   UNL d   1      17.322 -10.704  15.329  0.00  0.00     0.029 A 
BRANCH  13  17
ATOM     17  C   UNL d   1      16.978 -11.661  19.487  0.00  0.00     0.417 C 
ATOM     18  F   UNL d   1      15.716 -12.025  19.863  0.00  0.00    -0.166 F 
ATOM     19  F   UNL d   1      17.311 -10.627  20.315  0.00  0.00    -0.166 F 
ATOM     20  F   UNL d   1      17.784 -12.698  19.856  0.00  0.00    -0.166 F 
ENDBRANCH  13  17
ENDBRANCH   8  11
ENDBRANCH   2   5
BRANCH   3  21
ATOM     21  C   UNL d   1      16.480  -2.662  15.494  0.00  0.00     0.078 C 
ATOM     22  C   UNL d   1      16.441  -1.952  14.357  0.00  0.00    -0.071 C 
ATOM     23  C   UNL d   1      17.100  -0.609  14.207  0.00  0.00     0.054 C 
ATOM     24  C   UNL d   1      15.752  -2.435  13.112  0.00  0.00     0.054 C 
ATOM     25  C   UNL d   1      18.052  -0.609  13.010  0.00  0.00     0.127 C 
ATOM     26  N   UNL d   1      17.372  -1.107  11.801  0.00  0.00    -0.380 N 
ATOM     27  C   UNL d   1      16.711  -2.416  11.919  0.00  0.00     0.127 C 
BRANCH  26  28
ATOM     28  C   UNL d   1      17.881  -0.701  10.562  0.00  0.00     0.030 A 
ATOM     29  C   UNL d   1      19.177  -0.192  10.473  0.00  0.00     0.032 A 
ATOM     30  C   UNL d   1      19.684   0.212   9.239  0.00  0.00     0.038 A 
ATOM     31  C   UNL d   1      18.894   0.109   8.093  0.00  0.00     0.103 A 
ATOM     32  C   UNL d   1      17.599  -0.399   8.182  0.00  0.00     0.038 A 
ATOM     33  C   UNL d   1      17.092  -0.804   9.417  0.00  0.00     0.032 A 
BRANCH  31  34
ATOM     34  N   UNL d   1      19.410   0.522   6.836  0.00  0.00    -0.116 N 
ATOM     35  O   UNL d   1      20.592   0.227   6.537  0.00  0.00    -0.532 OA
ATOM     36  O   UNL d   1      18.669   1.171   6.058  0.00  0.00    -0.532 OA
ENDBRANCH  31  34
ENDBRANCH  26  28
ENDBRANCH   3  21
TORSDOF 6
ENDMDL
MODEL 7
REMARK VINA RESULT:      -1.5      5.900      7.767
REMARK  6 active torsions:
REMARK  status: ('A' for Active; 'I' for Inactive)
REMARK    1  A    between atoms: N_8  and  C_18 
REMARK    2  A    between atoms: N_9  and  N_11 
REMARK       I    between atoms: N_9  and  C_22 
REMARK    3  A    between atoms: N_10  and  C_25 
REMARK       I    between atoms: N_11  and  C_27 
REMARK    4  A    between atoms: N_12  and  C_26 
REMARK       I    between atoms: N_12  and  C_27 
REMARK    5  A    between atoms: C_19  and  C_22 
REMARK    6  A    between atoms: C_28  and  C_33 
ROOT
ATOM      1  O   UNL d   1      15.167  -3.796   5.908  0.00  0.00    -0.267 OA
ATOM      2  N   UNL d   1      14.138  -2.733   7.698  0.00  0.00    -0.263 N 
ATOM      3  C   UNL d   1      15.195  -3.019   6.857  0.00  0.00     0.260 C 
ATOM      4  H   UNL d   1      14.186  -2.084   8.476  0.00  0.00     0.190 HD
ENDROOT
BRANCH   2   5
ATOM      5  N   UNL d   1      12.933  -3.355   7.484  0.00  0.00    -0.248 N 
ATOM      6  C   UNL d   1      12.576  -4.441   8.283  0.00  0.00     0.339 C 
ATOM      7  O   UNL d   1      13.291  -4.880   9.181  0.00  0.00    -0.245 OA
ATOM      8  N   UNL d   1      11.320  -4.925   7.906  0.00  0.00    -0.308 N 
ATOM      9  H   UNL d   1      10.860  -4.443   7.138  0.00  0.00     0.170 HD
ATOM     10  H   UNL d   1      12.346  -2.984   6.746  0.00  0.00     0.192 HD
BRANCH   8  11
ATOM     11  C   UNL d   1      10.604  -6.010   8.463  0.00  0.00     0.037 A 
ATOM     12  C   UNL d   1      10.555  -7.232   7.793  0.00  0.00     0.045 A 
ATOM     13  C   UNL d   1       9.848  -8.301   8.343  0.00  0.00     0.050 A 
ATOM     14  C   UNL d   1       9.190  -8.148   9.563  0.00  0.00     0.016 A 
ATOM     15  C   UNL d   1       9.239  -6.926  10.234  0.00  0.00     0.003 A 
ATOM     16  C   UNL d   1       9.946  -5.857   9.684  0.00  0.00     0.029 A 
BRANCH  13  17
ATOM     17  C   UNL d   1       9.796  -9.608   7.626  0.00  0.00     0.417 C 
ATOM     18  F   UNL d   1      10.643  -9.680   6.556  0.00  0.00    -0.166 F 
ATOM     19  F   UNL d   1       8.561  -9.906   7.122  0.00  0.00    -0.166 F 
ATOM     20  F   UNL d   1      10.127 -10.661   8.428  0.00  0.00    -0.166 F 
ENDBRANCH  13  17
ENDBRANCH   8  11
ENDBRANCH   2   5
BRANCH   3  21
ATOM     21  C   UNL d   1      16.412  -2.258   7.237  0.00  0.00     0.078 C 
ATOM     22  C   UNL d   1      17.274  -2.764   8.130  0.00  0.00    -0.071 C 
ATOM     23  C   UNL d   1      18.524  -2.047   8.559  0.00  0.00     0.054 C 
ATOM     24  C   UNL d   1      17.069  -4.089   8.808  0.00  0.00     0.054 C 
ATOM     25  C   UNL d   1      18.566  -1.904  10.081  0.00  0.00     0.127 C 
ATOM     26  N   UNL d   1      18.340  -3.205  10.735  0.00  0.00    -0.380 N 
ATOM     27  C   UNL d   1      17.128  -3.935  10.330  0.00  0.00     0.127 C 
BRANCH  26  28
ATOM     28  C   UNL d   1      18.845  -3.372  12.029  0.00  0.00     0.030 A 
ATOM     29  C   UNL d   1      18.743  -4.611  12.663  0.00  0.00     0.032 A 
ATOM     30  C   UNL d   1      19.247  -4.778  13.952  0.00  0.00     0.038 A 
ATOM     31  C   UNL d   1      19.854  -3.706  14.608  0.00  0.00     0.103 A 
ATOM     32  C   UNL d   1      19.955  -2.468  13.975  0.00  0.00     0.038 A 
ATOM     33  C   UNL d   1      19.452  -2.301  12.685  0.00  0.00     0.032 A 
BRANCH  31  34
ATOM     34  N   UNL d   1      20.366  -3.876  15.922  0.00  0.00    -0.116 N 
ATOM     35  O   UNL d   1      20.591  -2.860  16.623  0.00  0.00    -0.532 OA
ATOM     36  O   UNL d   1      20.581  -5.037  16.345  0.00  0.00    -0.532 OA
ENDBRANCH  31  34
ENDBRANCH  26  28
ENDBRANCH   3  21
TORSDOF 6
ENDMDL
MODEL 8
REMARK VINA RESULT:      -1.4      5.072      6.132
REMARK  6 active torsions:
REMARK  status: ('A' for Active; 'I' for Inactive)
REMARK    1  A    between atoms: N_8  and  C_18 
REMARK    2  A    between atoms: N_9  and  N_11 
REMARK       I    between atoms: N_9  and  C_22 
REMARK    3  A    between atoms: N_10  and  C_25 
REMARK       I    between atoms: N_11  and  C_27 
REMARK    4  A    between atoms: N_12  and  C_26 
REMARK       I    between atoms: N_12  and  C_27 
REMARK    5  A    between atoms: C_19  and  C_22 
REMARK    6  A    between atoms: C_28  and  C_33 
ROOT
ATOM      1  O   UNL d   1      18.601  -3.549   8.429  0.00  0.00    -0.267 OA
ATOM      2  N   UNL d   1      19.126  -5.126   6.806  0.00  0.00    -0.263 N 
ATOM      3  C   UNL d   1      19.060  -4.637   8.096  0.00  0.00     0.260 C 
ATOM      4  H   UNL d   1      19.508  -6.032   6.557  0.00  0.00     0.190 HD
ENDROOT
BRANCH   2   5
ATOM      5  N   UNL d   1      18.644  -4.353   5.779  0.00  0.00    -0.248 N 
ATOM      6  C   UNL d   1      19.439  -4.146   4.652  0.00  0.00     0.339 C 
ATOM      7  O   UNL d   1      20.564  -4.623   4.525  0.00  0.00    -0.245 OA
ATOM      8  N   UNL d   1      18.768  -3.339   3.730  0.00  0.00    -0.308 N 
ATOM      9  H   UNL d   1      17.836  -3.027   3.993  0.00  0.00     0.170 HD
ATOM     10  H   UNL d   1      17.713  -3.967   5.887  0.00  0.00     0.192 HD
BRANCH   8  11
ATOM     11  C   UNL d   1      19.225  -2.897   2.467  0.00  0.00     0.037 A 
ATOM     12  C   UNL d   1      18.849  -3.579   1.310  0.00  0.00     0.045 A 
ATOM     13  C   UNL d   1      19.300  -3.142   0.065  0.00  0.00     0.050 A 
ATOM     14  C   UNL d   1      20.128  -2.024  -0.024  0.00  0.00     0.016 A 
ATOM     15  C   UNL d   1      20.504  -1.341   1.132  0.00  0.00     0.003 A 
ATOM     16  C   UNL d   1      20.053  -1.777   2.378  0.00  0.00     0.029 A 
BRANCH  13  17
ATOM     17  C   UNL d   1      18.897  -3.873  -1.172  0.00  0.00     0.417 C 
ATOM     18  F   UNL d   1      19.939  -4.487  -1.809  0.00  0.00    -0.166 F 
ATOM     19  F   UNL d   1      18.325  -3.071  -2.119  0.00  0.00    -0.166 F 
ATOM     20  F   UNL d   1      17.985  -4.857  -0.928  0.00  0.00    -0.166 F 
ENDBRANCH  13  17
ENDBRANCH   8  11
ENDBRANCH   2   5
BRANCH   3  21
ATOM     21  C   UNL d   1      19.624  -5.604   9.072  0.00  0.00     0.078 C 
ATOM     22  C   UNL d   1      18.821  -6.230   9.945  0.00  0.00    -0.071 C 
ATOM     23  C   UNL d   1      19.325  -7.219  10.958  0.00  0.00     0.054 C 
ATOM     24  C   UNL d   1      17.339  -5.989  10.013  0.00  0.00     0.054 C 
ATOM     25  C   UNL d   1      18.893  -6.811  12.368  0.00  0.00     0.127 C 
ATOM     26  N   UNL d   1      17.443  -6.556  12.416  0.00  0.00    -0.380 N 
ATOM     27  C   UNL d   1      16.917  -5.598  11.432  0.00  0.00     0.127 C 
BRANCH  26  28
ATOM     28  C   UNL d   1      16.806  -6.690  13.655  0.00  0.00     0.030 A 
ATOM     29  C   UNL d   1      15.542  -7.276  13.730  0.00  0.00     0.032 A 
ATOM     30  C   UNL d   1      14.907  -7.410  14.964  0.00  0.00     0.038 A 
ATOM     31  C   UNL d   1      15.537  -6.957  16.125  0.00  0.00     0.103 A 
ATOM     32  C   UNL d   1      16.799  -6.371  16.050  0.00  0.00     0.038 A 
ATOM     33  C   UNL d   1      17.434  -6.238  14.815  0.00  0.00     0.032 A 
BRANCH  31  34
ATOM     34  N   UNL d   1      14.890  -7.092  17.382  0.00  0.00    -0.116 N 
ATOM     35  O   UNL d   1      13.796  -7.703  17.441  0.00  0.00    -0.532 OA
ATOM     36  O   UNL d   1      15.431  -6.596  18.401  0.00  0.00    -0.532 OA
ENDBRANCH  31  34
ENDBRANCH  26  28
ENDBRANCH   3  21
TORSDOF 6
ENDMDL
MODEL 9
REMARK VINA RESULT:      -1.4      7.617      8.885
REMARK  6 active torsions:
REMARK  status: ('A' for Active; 'I' for Inactive)
REMARK    1  A    between atoms: N_8  and  C_18 
REMARK    2  A    between atoms: N_9  and  N_11 
REMARK       I    between atoms: N_9  and  C_22 
REMARK    3  A    between atoms: N_10  and  C_25 
REMARK       I    between atoms: N_11  and  C_27 
REMARK    4  A    between atoms: N_12  and  C_26 
REMARK       I    between atoms: N_12  and  C_27 
REMARK    5  A    between atoms: C_19  and  C_22 
REMARK    6  A    between atoms: C_28  and  C_33 
ROOT
ATOM      1  O   UNL d   1      15.222  -2.464   5.975  0.00  0.00    -0.267 OA
ATOM      2  N   UNL d   1      14.281  -1.300   7.751  0.00  0.00    -0.263 N 
ATOM      3  C   UNL d   1      15.317  -1.699   6.931  0.00  0.00     0.260 C 
ATOM      4  H   UNL d   1      14.385  -0.664   8.534  0.00  0.00     0.190 HD
ENDROOT
BRANCH   2   5
ATOM      5  N   UNL d   1      13.018  -1.779   7.505  0.00  0.00    -0.248 N 
ATOM      6  C   UNL d   1      12.085  -0.950   6.884  0.00  0.00     0.339 C 
ATOM      7  O   UNL d   1      12.333   0.203   6.537  0.00  0.00    -0.245 OA
ATOM      8  N   UNL d   1      10.871  -1.624   6.726  0.00  0.00    -0.308 N 
ATOM      9  H   UNL d   1      10.834  -2.580   7.069  0.00  0.00     0.170 HD
ATOM     10  H   UNL d   1      12.821  -2.732   7.788  0.00  0.00     0.192 HD
BRANCH   8  11
ATOM     11  C   UNL d   1       9.676  -1.139   6.144  0.00  0.00     0.037 A 
ATOM     12  C   UNL d   1       8.655  -0.644   6.954  0.00  0.00     0.045 A 
ATOM     13  C   UNL d   1       7.478  -0.166   6.379  0.00  0.00     0.050 A 
ATOM     14  C   UNL d   1       7.322  -0.182   4.994  0.00  0.00     0.016 A 
ATOM     15  C   UNL d   1       8.344  -0.676   4.182  0.00  0.00     0.003 A 
ATOM     16  C   UNL d   1       9.521  -1.154   4.757  0.00  0.00     0.029 A 
BRANCH  13  17
ATOM     17  C   UNL d   1       6.386   0.363   7.247  0.00  0.00     0.417 C 
ATOM     18  F   UNL d   1       6.746   0.501   8.557  0.00  0.00    -0.166 F 
ATOM     19  F   UNL d   1       5.272  -0.428   7.266  0.00  0.00    -0.166 F 
ATOM     20  F   UNL d   1       5.952   1.595   6.854  0.00  0.00    -0.166 F 
ENDBRANCH  13  17
ENDBRANCH   8  11
ENDBRANCH   2   5
BRANCH   3  21
ATOM     21  C   UNL d   1      16.604  -1.084   7.343  0.00  0.00     0.078 C 
ATOM     22  C   UNL d   1      17.411  -1.718   8.205  0.00  0.00    -0.071 C 
ATOM     23  C   UNL d   1      18.726  -1.152   8.664  0.00  0.00     0.054 C 
ATOM     24  C   UNL d   1      17.074  -3.048   8.817  0.00  0.00     0.054 C 
ATOM     25  C   UNL d   1      18.781  -1.091  10.192  0.00  0.00     0.127 C 
ATOM     26  N   UNL d   1      18.426  -2.395  10.780  0.00  0.00    -0.380 N 
ATOM     27  C   UNL d   1      17.148  -2.979  10.344  0.00  0.00     0.127 C 
BRANCH  26  28
ATOM     28  C   UNL d   1      18.911  -2.677  12.061  0.00  0.00     0.030 A 
ATOM     29  C   UNL d   1      18.631  -3.907  12.658  0.00  0.00     0.032 A 
ATOM     30  C   UNL d   1      19.116  -4.189  13.935  0.00  0.00     0.038 A 
ATOM     31  C   UNL d   1      19.880  -3.241  14.616  0.00  0.00     0.103 A 
ATOM     32  C   UNL d   1      20.159  -2.012  14.020  0.00  0.00     0.038 A 
ATOM     33  C   UNL d   1      19.675  -1.730  12.743  0.00  0.00     0.032 A 
BRANCH  31  34
ATOM     34  N   UNL d   1      20.372  -3.527  15.917  0.00  0.00    -0.116 N 
ATOM     35  O   UNL d   1      20.590  -2.578  16.707  0.00  0.00    -0.532 OA
ATOM     36  O   UNL d   1      20.577  -4.723  16.240  0.00  0.00    -0.532 OA
ENDBRANCH  31  34
ENDBRANCH  26  28
ENDBRANCH   3  21
TORSDOF 6
ENDMDL
