MODEL 1
REMARK VINA RESULT:      -1.7      0.000      0.000
REMARK  1 active torsions:
REMARK  status: ('A' for Active; 'I' for Inactive)
REMARK    1  A    between atoms: O_1  and  C_13 
ROOT
ATOM      1  O   UNL d   1      18.998  -3.874   9.977  0.00  0.00    -0.298 OA
ATOM      2  C   UNL d   1      17.803  -6.896  15.497  0.00  0.00    -0.005 C 
ATOM      3  C   UNL d   1      16.968  -5.803  14.759  0.00  0.00    -0.002 C 
ATOM      4  C   UNL d   1      17.233  -7.075  16.908  0.00  0.00     0.001 C 
ATOM      5  C   UNL d   1      15.754  -7.509  16.905  0.00  0.00    -0.014 C 
ATOM      6  C   UNL d   1      17.514  -5.507  13.312  0.00  0.00    -0.036 C 
ATOM      7  C   UNL d   1      19.034  -5.166  13.412  0.00  0.00     0.001 C 
ATOM      8  C   UNL d   1      15.443  -6.099  14.816  0.00  0.00     0.007 C 
ATOM      9  C   UNL d   1      14.933  -6.397  16.238  0.00  0.00     0.012 C 
ATOM     10  C   UNL d   1      19.286  -6.511  15.543  0.00  0.00     0.006 C 
ATOM     11  C   UNL d   1      17.893  -8.071  17.859  0.00  0.00     0.008 C 
ATOM     12  C   UNL d   1      15.531  -7.653  18.422  0.00  0.00     0.126 C 
ATOM     13  C   UNL d   1      19.846  -6.238  14.152  0.00  0.00     0.006 C 
ATOM     14  C   UNL d   1      16.817  -8.338  18.926  0.00  0.00     0.033 C 
ATOM     15  C   UNL d   1      16.766  -4.276  12.706  0.00  0.00     0.017 C 
ATOM     16  C   UNL d   1      15.478  -8.857  16.191  0.00  0.00     0.018 C 
ATOM     17  C   UNL d   1      17.277  -6.722  12.376  0.00  0.00     0.016 C 
ATOM     18  C   UNL d   1      19.666  -4.885  12.040  0.00  0.00     0.083 C 
ATOM     19  C   UNL d   1      17.618  -3.334  11.854  0.00  0.00     0.079 C 
ATOM     20  C   UNL d   1      18.762  -4.039  11.174  0.00  0.00     0.127 C 
ENDROOT
BRANCH  12  21
ATOM     21  O   UNL d   1      14.376  -8.404  18.743  0.00  0.00    -0.395 OA
ATOM     22  H   UNL d   1      14.585  -9.008  19.474  0.00  0.00     0.210 HD
ENDBRANCH  12  21
TORSDOF 1
ENDMDL
MODEL 2
REMARK VINA RESULT:      -1.7      2.602      3.720
REMARK  1 active torsions:
REMARK  status: ('A' for Active; 'I' for Inactive)
REMARK    1  A    between atoms: O_1  and  C_13 
ROOT
ATOM      1  O   UNL d   1      17.405   0.962  11.711  0.00  0.00    -0.298 OA
ATOM      2  C   UNL d   1      19.073  -4.483  14.644  0.00  0.00    -0.005 C 
ATOM      3  C   UNL d   1      17.707  -4.071  14.010  0.00  0.00    -0.002 C 
ATOM      4  C   UNL d   1      18.863  -5.759  15.466  0.00  0.00     0.001 C 
ATOM      5  C   UNL d   1      18.342  -6.937  14.620  0.00  0.00    -0.014 C 
ATOM      6  C   UNL d   1      17.808  -2.733  13.186  0.00  0.00    -0.036 C 
ATOM      7  C   UNL d   1      18.427  -1.629  14.101  0.00  0.00     0.001 C 
ATOM      8  C   UNL d   1      17.046  -5.246  13.238  0.00  0.00     0.007 C 
ATOM      9  C   UNL d   1      16.968  -6.547  14.057  0.00  0.00     0.012 C 
ATOM     10  C   UNL d   1      19.635  -3.350  15.511  0.00  0.00     0.006 C 
ATOM     11  C   UNL d   1      20.046  -6.361  16.223  0.00  0.00     0.008 C 
ATOM     12  C   UNL d   1      18.308  -8.030  15.705  0.00  0.00     0.126 C 
ATOM     13  C   UNL d   1      19.762  -2.046  14.732  0.00  0.00     0.006 C 
ATOM     14  C   UNL d   1      19.613  -7.813  16.496  0.00  0.00     0.033 C 
ATOM     15  C   UNL d   1      16.380  -2.272  12.748  0.00  0.00     0.017 C 
ATOM     16  C   UNL d   1      19.277  -7.361  13.458  0.00  0.00     0.018 C 
ATOM     17  C   UNL d   1      18.661  -2.938  11.907  0.00  0.00     0.016 C 
ATOM     18  C   UNL d   1      18.589  -0.285  13.374  0.00  0.00     0.083 C 
ATOM     19  C   UNL d   1      16.132  -0.764  12.769  0.00  0.00     0.079 C 
ATOM     20  C   UNL d   1      17.384   0.036  12.521  0.00  0.00     0.127 C 
ENDROOT
BRANCH  12  21
ATOM     21  O   UNL d   1      18.230  -9.337  15.170  0.00  0.00    -0.395 OA
ATOM     22  H   UNL d   1      18.349  -9.980  15.889  0.00  0.00     0.210 HD
ENDBRANCH  12  21
TORSDOF 1
ENDMDL
MODEL 3
REMARK VINA RESULT:      -1.6      4.001      6.347
REMARK  1 active torsions:
REMARK  status: ('A' for Active; 'I' for Inactive)
REMARK    1  A    between atoms: O_1  and  C_13 
ROOT
ATOM      1  O   UNL d   1      15.593 -15.059  13.536  0.00  0.00    -0.298 OA
ATOM      2  C   UNL d   1      18.520  -9.657  15.349  0.00  0.00    -0.005 C 
ATOM      3  C   UNL d   1      17.487  -9.894  14.202  0.00  0.00    -0.002 C 
ATOM      4  C   UNL d   1      19.126  -8.260  15.178  0.00  0.00     0.001 C 
ATOM      5  C   UNL d   1      18.070  -7.139  15.232  0.00  0.00    -0.014 C 
ATOM      6  C   UNL d   1      16.847 -11.331  14.260  0.00  0.00    -0.036 C 
ATOM      7  C   UNL d   1      17.996 -12.389  14.290  0.00  0.00     0.001 C 
ATOM      8  C   UNL d   1      16.452  -8.739  14.103  0.00  0.00     0.007 C 
ATOM      9  C   UNL d   1      17.100  -7.342  14.061  0.00  0.00     0.012 C 
ATOM     10  C   UNL d   1      19.607 -10.739  15.336  0.00  0.00     0.006 C 
ATOM     11  C   UNL d   1      20.197  -7.787  16.158  0.00  0.00     0.008 C 
ATOM     12  C   UNL d   1      18.995  -5.915  15.097  0.00  0.00     0.126 C 
ATOM     13  C   UNL d   1      19.014 -12.141  15.411  0.00  0.00     0.006 C 
ATOM     14  C   UNL d   1      20.199  -6.256  15.997  0.00  0.00     0.033 C 
ATOM     15  C   UNL d   1      15.980 -11.576  12.983  0.00  0.00     0.017 C 
ATOM     16  C   UNL d   1      17.272  -7.067  16.560  0.00  0.00     0.018 C 
ATOM     17  C   UNL d   1      15.927 -11.473  15.501  0.00  0.00     0.016 C 
ATOM     18  C   UNL d   1      17.467 -13.829  14.372  0.00  0.00     0.083 C 
ATOM     19  C   UNL d   1      16.023 -12.993  12.411  0.00  0.00     0.079 C 
ATOM     20  C   UNL d   1      16.278 -14.039  13.464  0.00  0.00     0.127 C 
ENDROOT
BRANCH  12  21
ATOM     21  O   UNL d   1      18.373  -4.706  15.489  0.00  0.00    -0.395 OA
ATOM     22  H   UNL d   1      18.767  -3.973  14.989  0.00  0.00     0.210 HD
ENDBRANCH  12  21
TORSDOF 1
ENDMDL
MODEL 4
REMARK VINA RESULT:      -1.5      3.156      4.864
REMARK  1 active torsions:
REMARK  status: ('A' for Active; 'I' for Inactive)
REMARK    1  A    between atoms: O_1  and  C_13 
ROOT
ATOM      1  O   UNL d   1      18.040  -8.703   6.594  0.00  0.00    -0.298 OA
ATOM      2  C   UNL d   1      17.485  -7.532  12.868  0.00  0.00    -0.005 C 
ATOM      3  C   UNL d   1      18.654  -8.200  12.078  0.00  0.00    -0.002 C 
ATOM      4  C   UNL d   1      17.719  -7.753  14.366  0.00  0.00     0.001 C 
ATOM      5  C   UNL d   1      19.048  -7.149  14.859  0.00  0.00    -0.014 C 
ATOM      6  C   UNL d   1      18.475  -8.074  10.519  0.00  0.00    -0.036 C 
ATOM      7  C   UNL d   1      17.067  -8.629  10.132  0.00  0.00     0.001 C 
ATOM      8  C   UNL d   1      20.045  -7.741  12.599  0.00  0.00     0.007 C 
ATOM      9  C   UNL d   1      20.194  -7.861  14.127  0.00  0.00     0.012 C 
ATOM     10  C   UNL d   1      16.133  -8.104  12.426  0.00  0.00     0.006 C 
ATOM     11  C   UNL d   1      16.695  -7.221  15.367  0.00  0.00     0.008 C 
ATOM     12  C   UNL d   1      18.936  -7.484  16.358  0.00  0.00     0.126 C 
ATOM     13  C   UNL d   1      15.924  -7.977  10.922  0.00  0.00     0.006 C 
ATOM     14  C   UNL d   1      17.464  -7.179  16.699  0.00  0.00     0.033 C 
ATOM     15  C   UNL d   1      19.563  -8.928   9.791  0.00  0.00     0.017 C 
ATOM     16  C   UNL d   1      19.177  -5.618  14.657  0.00  0.00     0.018 C 
ATOM     17  C   UNL d   1      18.636  -6.599  10.065  0.00  0.00     0.016 C 
ATOM     18  C   UNL d   1      16.788  -8.524   8.625  0.00  0.00     0.083 C 
ATOM     19  C   UNL d   1      19.106  -9.641   8.518  0.00  0.00     0.079 C 
ATOM     20  C   UNL d   1      17.997  -8.911   7.807  0.00  0.00     0.127 C 
ENDROOT
BRANCH  12  21
ATOM     21  O   UNL d   1      19.827  -6.734  17.161  0.00  0.00    -0.395 OA
ATOM     22  H   UNL d   1      20.099  -5.940  16.672  0.00  0.00     0.210 HD
ENDBRANCH  12  21
TORSDOF 1
ENDMDL
MODEL 5
REMARK VINA RESULT:      -1.5      3.695      5.557
REMARK  1 active torsions:
REMARK  status: ('A' for Active; 'I' for Inactive)
REMARK    1  A    between atoms: O_1  and  C_13 
ROOT
ATOM      1  O   UNL d   1      13.303 -11.517  10.206  0.00  0.00    -0.298 OA
ATOM      2  C   UNL d   1      16.479  -8.968  15.151  0.00  0.00    -0.005 C 
ATOM      3  C   UNL d   1      16.967  -9.259  13.697  0.00  0.00    -0.002 C 
ATOM      4  C   UNL d   1      17.697  -8.629  16.016  0.00  0.00     0.001 C 
ATOM      5  C   UNL d   1      18.470  -7.398  15.505  0.00  0.00    -0.014 C 
ATOM      6  C   UNL d   1      15.787  -9.673  12.740  0.00  0.00    -0.036 C 
ATOM      7  C   UNL d   1      15.014 -10.866  13.387  0.00  0.00     0.001 C 
ATOM      8  C   UNL d   1      17.864  -8.117  13.145  0.00  0.00     0.007 C 
ATOM      9  C   UNL d   1      19.004  -7.720  14.102  0.00  0.00     0.012 C 
ATOM     10  C   UNL d   1      15.711 -10.168  15.719  0.00  0.00     0.006 C 
ATOM     11  C   UNL d   1      17.498  -8.331  17.501  0.00  0.00     0.008 C 
ATOM     12  C   UNL d   1      19.549  -7.306  16.599  0.00  0.00     0.126 C 
ATOM     13  C   UNL d   1      14.550 -10.577  14.821  0.00  0.00     0.006 C 
ATOM     14  C   UNL d   1      18.781  -7.584  17.906  0.00  0.00     0.033 C 
ATOM     15  C   UNL d   1      16.361 -10.141  11.364  0.00  0.00     0.017 C 
ATOM     16  C   UNL d   1      17.640  -6.089  15.455  0.00  0.00     0.018 C 
ATOM     17  C   UNL d   1      14.841  -8.471  12.483  0.00  0.00     0.016 C 
ATOM     18  C   UNL d   1      13.823 -11.327  12.534  0.00  0.00     0.083 C 
ATOM     19  C   UNL d   1      15.633 -11.311  10.703  0.00  0.00     0.079 C 
ATOM     20  C   UNL d   1      14.173 -11.368  11.065  0.00  0.00     0.127 C 
ENDROOT
BRANCH  12  21
ATOM     21  O   UNL d   1      20.200  -6.050  16.630  0.00  0.00    -0.395 OA
ATOM     22  H   UNL d   1      19.925  -5.572  17.429  0.00  0.00     0.210 HD
ENDBRANCH  12  21
TORSDOF 1
ENDMDL
MODEL 6
REMARK VINA RESULT:      -1.2      8.607     11.761
REMARK  1 active torsions:
REMARK  status: ('A' for Active; 'I' for Inactive)
REMARK    1  A    between atoms: O_1  and  C_13 
ROOT
ATOM      1  O   UNL d   1      17.901   0.795  -0.152  0.00  0.00    -0.298 OA
ATOM      2  C   UNL d   1      19.038  -3.971   3.975  0.00  0.00    -0.005 C 
ATOM      3  C   UNL d   1      19.357  -2.448   4.099  0.00  0.00    -0.002 C 
ATOM      4  C   UNL d   1      19.769  -4.715   5.097  0.00  0.00     0.001 C 
ATOM      5  C   UNL d   1      19.349  -4.242   6.502  0.00  0.00    -0.014 C 
ATOM      6  C   UNL d   1      18.692  -1.600   2.952  0.00  0.00    -0.036 C 
ATOM      7  C   UNL d   1      19.106  -2.211   1.575  0.00  0.00     0.001 C 
ATOM      8  C   UNL d   1      19.079  -1.911   5.531  0.00  0.00     0.007 C 
ATOM      9  C   UNL d   1      19.728  -2.761   6.638  0.00  0.00     0.012 C 
ATOM     10  C   UNL d   1      19.449  -4.503   2.596  0.00  0.00     0.006 C 
ATOM     11  C   UNL d   1      19.650  -6.236   5.184  0.00  0.00     0.008 C 
ATOM     12  C   UNL d   1      20.194  -5.205   7.355  0.00  0.00     0.126 C 
ATOM     13  C   UNL d   1      18.803  -3.711   1.465  0.00  0.00     0.006 C 
ATOM     14  C   UNL d   1      20.064  -6.559   6.631  0.00  0.00     0.033 C 
ATOM     15  C   UNL d   1      19.207  -0.126   3.016  0.00  0.00     0.017 C 
ATOM     16  C   UNL d   1      17.842  -4.422   6.820  0.00  0.00     0.018 C 
ATOM     17  C   UNL d   1      17.148  -1.578   3.109  0.00  0.00     0.016 C 
ATOM     18  C   UNL d   1      18.482  -1.462   0.387  0.00  0.00     0.083 C 
ATOM     19  C   UNL d   1      19.434   0.558   1.668  0.00  0.00     0.079 C 
ATOM     20  C   UNL d   1      18.526   0.034   0.588  0.00  0.00     0.127 C 
ENDROOT
BRANCH  12  21
ATOM     21  O   UNL d   1      19.756  -5.284   8.698  0.00  0.00    -0.395 OA
ATOM     22  H   UNL d   1      18.902  -5.748   8.724  0.00  0.00     0.210 HD
ENDBRANCH  12  21
TORSDOF 1
ENDMDL
MODEL 7
REMARK VINA RESULT:      -1.2      5.330      7.584
REMARK  1 active torsions:
REMARK  status: ('A' for Active; 'I' for Inactive)
REMARK    1  A    between atoms: O_1  and  C_13 
ROOT
ATOM      1  O   UNL d   1      13.278   2.048   9.485  0.00  0.00    -0.298 OA
ATOM      2  C   UNL d   1      17.809   0.678  13.802  0.00  0.00    -0.005 C 
ATOM      3  C   UNL d   1      16.520  -0.118  13.423  0.00  0.00    -0.002 C 
ATOM      4  C   UNL d   1      18.394   0.077  15.084  0.00  0.00     0.001 C 
ATOM      5  C   UNL d   1      18.766  -1.411  14.931  0.00  0.00    -0.014 C 
ATOM      6  C   UNL d   1      15.811   0.463  12.143  0.00  0.00    -0.036 C 
ATOM      7  C   UNL d   1      15.558   1.989  12.361  0.00  0.00     0.001 C 
ATOM      8  C   UNL d   1      16.777  -1.650  13.370  0.00  0.00     0.007 C 
ATOM      9  C   UNL d   1      17.481  -2.194  14.626  0.00  0.00     0.012 C 
ATOM     10  C   UNL d   1      17.496   2.169  13.980  0.00  0.00     0.006 C 
ATOM     11  C   UNL d   1      19.651   0.696  15.692  0.00  0.00     0.008 C 
ATOM     12  C   UNL d   1      19.360  -1.666  16.329  0.00  0.00     0.126 C 
ATOM     13  C   UNL d   1      16.826   2.762  12.746  0.00  0.00     0.006 C 
ATOM     14  C   UNL d   1      20.201  -0.407  16.613  0.00  0.00     0.033 C 
ATOM     15  C   UNL d   1      14.433  -0.245  11.934  0.00  0.00     0.017 C 
ATOM     16  C   UNL d   1      19.823  -1.703  13.835  0.00  0.00     0.018 C 
ATOM     17  C   UNL d   1      16.675   0.217  10.878  0.00  0.00     0.016 C 
ATOM     18  C   UNL d   1      14.888   2.653  11.148  0.00  0.00     0.083 C 
ATOM     19  C   UNL d   1      13.300   0.644  11.421  0.00  0.00     0.079 C 
ATOM     20  C   UNL d   1      13.794   1.785  10.572  0.00  0.00     0.127 C 
ENDROOT
BRANCH  12  21
ATOM     21  O   UNL d   1      20.142  -2.844  16.390  0.00  0.00    -0.395 OA
ATOM     22  H   UNL d   1      21.073  -2.613  16.238  0.00  0.00     0.210 HD
ENDBRANCH  12  21
TORSDOF 1
ENDMDL
MODEL 8
REMARK VINA RESULT:      -1.1      9.606     11.732
REMARK  1 active torsions:
REMARK  status: ('A' for Active; 'I' for Inactive)
REMARK    1  A    between atoms: O_1  and  C_13 
ROOT
ATOM      1  O   UNL d   1      19.463  -9.330   1.627  0.00  0.00    -0.298 OA
ATOM      2  C   UNL d   1      18.984  -4.153   5.369  0.00  0.00    -0.005 C 
ATOM      3  C   UNL d   1      19.228  -4.251   3.830  0.00  0.00    -0.002 C 
ATOM      4  C   UNL d   1      19.243  -2.710   5.813  0.00  0.00     0.001 C 
ATOM      5  C   UNL d   1      18.324  -1.693   5.108  0.00  0.00    -0.014 C 
ATOM      6  C   UNL d   1      19.039  -5.716   3.285  0.00  0.00    -0.036 C 
ATOM      7  C   UNL d   1      19.942  -6.679   4.120  0.00  0.00     0.001 C 
ATOM      8  C   UNL d   1      18.431  -3.172   3.046  0.00  0.00     0.007 C 
ATOM      9  C   UNL d   1      18.620  -1.749   3.603  0.00  0.00     0.012 C 
ATOM     10  C   UNL d   1      19.884  -5.137   6.127  0.00  0.00     0.006 C 
ATOM     11  C   UNL d   1      19.105  -2.347   7.290  0.00  0.00     0.008 C 
ATOM     12  C   UNL d   1      18.791  -0.404   5.808  0.00  0.00     0.126 C 
ATOM     13  C   UNL d   1      19.707  -6.568   5.632  0.00  0.00     0.006 C 
ATOM     14  C   UNL d   1      18.947  -0.816   7.285  0.00  0.00     0.033 C 
ATOM     15  C   UNL d   1      19.487  -5.786   1.790  0.00  0.00     0.017 C 
ATOM     16  C   UNL d   1      16.809  -1.918   5.347  0.00  0.00     0.018 C 
ATOM     17  C   UNL d   1      17.549  -6.143   3.362  0.00  0.00     0.016 C 
ATOM     18  C   UNL d   1      19.807  -8.144   3.676  0.00  0.00     0.083 C 
ATOM     19  C   UNL d   1      20.201  -7.071   1.369  0.00  0.00     0.079 C 
ATOM     20  C   UNL d   1      19.767  -8.269   2.171  0.00  0.00     0.127 C 
ENDROOT
BRANCH  12  21
ATOM     21  O   UNL d   1      17.881   0.669   5.657  0.00  0.00    -0.395 OA
ATOM     22  H   UNL d   1      17.413   0.568   4.812  0.00  0.00     0.210 HD
ENDBRANCH  12  21
TORSDOF 1
ENDMDL
MODEL 9
REMARK VINA RESULT:      -1.1      2.963      4.897
REMARK  1 active torsions:
REMARK  status: ('A' for Active; 'I' for Inactive)
REMARK    1  A    between atoms: O_1  and  C_13 
ROOT
ATOM      1  O   UNL d   1      18.715  -5.296   5.545  0.00  0.00    -0.298 OA
ATOM      2  C   UNL d   1      17.793  -6.747  11.717  0.00  0.00    -0.005 C 
ATOM      3  C   UNL d   1      19.101  -6.321  10.978  0.00  0.00    -0.002 C 
ATOM      4  C   UNL d   1      18.166  -7.257  13.112  0.00  0.00     0.001 C 
ATOM      5  C   UNL d   1      18.885  -6.194  13.966  0.00  0.00    -0.014 C 
ATOM      6  C   UNL d   1      18.826  -5.830   9.507  0.00  0.00    -0.036 C 
ATOM      7  C   UNL d   1      18.019  -6.936   8.755  0.00  0.00     0.001 C 
ATOM      8  C   UNL d   1      19.955  -5.339  11.827  0.00  0.00     0.007 C 
ATOM      9  C   UNL d   1      20.201  -5.832  13.265  0.00  0.00     0.012 C 
ATOM     10  C   UNL d   1      17.040  -7.817  10.917  0.00  0.00     0.006 C 
ATOM     11  C   UNL d   1      17.065  -7.770  14.038  0.00  0.00     0.008 C 
ATOM     12  C   UNL d   1      19.049  -6.991  15.273  0.00  0.00     0.126 C 
ATOM     13  C   UNL d   1      16.743  -7.360   9.494  0.00  0.00     0.006 C 
ATOM     14  C   UNL d   1      17.702  -7.722  15.438  0.00  0.00     0.033 C 
ATOM     15  C   UNL d   1      20.181  -5.609   8.761  0.00  0.00     0.017 C 
ATOM     16  C   UNL d   1      18.061  -4.905  14.220  0.00  0.00     0.018 C 
ATOM     17  C   UNL d   1      18.054  -4.484   9.512  0.00  0.00     0.016 C 
ATOM     18  C   UNL d   1      17.680  -6.536   7.310  0.00  0.00     0.083 C 
ATOM     19  C   UNL d   1      20.198  -6.001   7.283  0.00  0.00     0.079 C 
ATOM     20  C   UNL d   1      18.849  -5.866   6.629  0.00  0.00     0.127 C 
ENDROOT
BRANCH  12  21
ATOM     21  O   UNL d   1      19.340  -6.169  16.388  0.00  0.00    -0.395 OA
ATOM     22  H   UNL d   1      18.555  -5.639  16.602  0.00  0.00     0.210 HD
ENDBRANCH  12  21
TORSDOF 1
ENDMDL
