MODEL 1
REMARK VINA RESULT:      -1.5      0.000      0.000
REMARK  3 active torsions:
REMARK  status: ('A' for Active; 'I' for Inactive)
REMARK    1  A    between atoms: C_11  and  C_12 
REMARK    2  A    between atoms: C_11  and  C_13 
REMARK    3  A    between atoms: C_12  and  C_14 
ROOT
ATOM      1  C   UNL d   1      18.492  -4.858  15.312  0.00  0.00     0.045 C 
ENDROOT
BRANCH   1   2
ATOM      2  C   UNL d   1      19.629  -4.511  14.338  0.00  0.00     0.045 C 
BRANCH   2   3
ATOM      3  C   UNL d   1      19.378  -3.248  13.552  0.00  0.00    -0.020 A 
ATOM      4  C   UNL d   1      18.995  -3.330  12.217  0.00  0.00     0.037 A 
ATOM      5 BR   UNL d   1      18.802  -5.071  11.434  0.00  0.00    -0.049 Br
ATOM      6  C   UNL d   1      18.765  -2.163  11.490  0.00  0.00     0.047 A 
ATOM      7 BR   UNL d   1      18.241  -2.286   9.643  0.00  0.00    -0.048 Br
ATOM      8  C   UNL d   1      18.919  -0.918  12.100  0.00  0.00     0.048 A 
ATOM      9 BR   UNL d   1      18.601   0.693  11.097  0.00  0.00    -0.048 Br
ATOM     10  C   UNL d   1      19.303  -0.842  13.440  0.00  0.00     0.047 A 
ATOM     11 BR   UNL d   1      19.517   0.866  14.299  0.00  0.00    -0.048 Br
ATOM     12  C   UNL d   1      19.534  -2.010  14.167  0.00  0.00     0.037 A 
ATOM     13 BR   UNL d   1      20.064  -1.972  16.009  0.00  0.00    -0.049 Br
ENDBRANCH   2   3
ENDBRANCH   1   2
BRANCH   1  14
ATOM     14  C   UNL d   1      17.784  -6.141  14.983  0.00  0.00    -0.020 A 
ATOM     15  C   UNL d   1      16.547  -6.109  14.340  0.00  0.00     0.037 A 
ATOM     16 BR   UNL d   1      15.803  -4.396  13.904  0.00  0.00    -0.049 Br
ATOM     17  C   UNL d   1      15.887  -7.300  14.036  0.00  0.00     0.047 A 
ATOM     18 BR   UNL d   1      14.178  -7.238  13.154  0.00  0.00    -0.048 Br
ATOM     19  C   UNL d   1      16.466  -8.524  14.374  0.00  0.00     0.048 A 
ATOM     20 BR   UNL d   1      15.556 -10.168  13.953  0.00  0.00    -0.048 Br
ATOM     21  C   UNL d   1      17.704  -8.556  15.017  0.00  0.00     0.047 A 
ATOM     22 BR   UNL d   1      18.518 -10.234  15.486  0.00  0.00    -0.048 Br
ATOM     23  C   UNL d   1      18.362  -7.364  15.321  0.00  0.00     0.037 A 
ATOM     24 BR   UNL d   1      20.065  -7.341  16.204  0.00  0.00    -0.049 Br
ENDBRANCH   1  14
TORSDOF 3
ENDMDL
MODEL 2
REMARK VINA RESULT:      -1.5      3.093      4.553
REMARK  3 active torsions:
REMARK  status: ('A' for Active; 'I' for Inactive)
REMARK    1  A    between atoms: C_11  and  C_12 
REMARK    2  A    between atoms: C_11  and  C_13 
REMARK    3  A    between atoms: C_12  and  C_14 
ROOT
ATOM      1  C   UNL d   1      15.845  -3.956  14.238  0.00  0.00     0.045 C 
ENDROOT
BRANCH   1   2
ATOM      2  C   UNL d   1      15.221  -2.736  14.936  0.00  0.00     0.045 C 
BRANCH   2   3
ATOM      3  C   UNL d   1      16.232  -1.871  15.647  0.00  0.00    -0.020 A 
ATOM      4  C   UNL d   1      16.216  -1.791  17.036  0.00  0.00     0.037 A 
ATOM      5 BR   UNL d   1      14.890  -2.800  17.987  0.00  0.00    -0.049 Br
ATOM      6  C   UNL d   1      17.149  -0.991  17.694  0.00  0.00     0.047 A 
ATOM      7 BR   UNL d   1      17.116  -0.882  19.614  0.00  0.00    -0.048 Br
ATOM      8  C   UNL d   1      18.094  -0.274  16.960  0.00  0.00     0.048 A 
ATOM      9 BR   UNL d   1      19.383   0.831  17.868  0.00  0.00    -0.048 Br
ATOM     10  C   UNL d   1      18.105  -0.358  15.567  0.00  0.00     0.047 A 
ATOM     11 BR   UNL d   1      19.404   0.622  14.540  0.00  0.00    -0.048 Br
ATOM     12  C   UNL d   1      17.171  -1.159  14.910  0.00  0.00     0.037 A 
ATOM     13 BR   UNL d   1      17.134  -1.315  12.999  0.00  0.00    -0.049 Br
ENDBRANCH   2   3
ENDBRANCH   1   2
BRANCH   1  14
ATOM     14  C   UNL d   1      16.099  -5.114  15.159  0.00  0.00    -0.020 A 
ATOM     15  C   UNL d   1      15.026  -5.808  15.718  0.00  0.00     0.037 A 
ATOM     16 BR   UNL d   1      13.252  -5.235  15.271  0.00  0.00    -0.049 Br
ATOM     17  C   UNL d   1      15.262  -6.883  16.576  0.00  0.00     0.047 A 
ATOM     18 BR   UNL d   1      13.771  -7.827  17.343  0.00  0.00    -0.048 Br
ATOM     19  C   UNL d   1      16.570  -7.264  16.874  0.00  0.00     0.048 A 
ATOM     20 BR   UNL d   1      16.895  -8.748  18.057  0.00  0.00    -0.048 Br
ATOM     21  C   UNL d   1      17.643  -6.570  16.315  0.00  0.00     0.047 A 
ATOM     22 BR   UNL d   1      19.454  -7.084  16.712  0.00  0.00    -0.048 Br
ATOM     23  C   UNL d   1      17.407  -5.495  15.457  0.00  0.00     0.037 A 
ATOM     24 BR   UNL d   1      18.838  -4.499  14.658  0.00  0.00    -0.049 Br
ENDBRANCH   1  14
TORSDOF 3
ENDMDL
MODEL 3
REMARK VINA RESULT:      -1.4      2.710      4.430
REMARK  3 active torsions:
REMARK  status: ('A' for Active; 'I' for Inactive)
REMARK    1  A    between atoms: C_11  and  C_12 
REMARK    2  A    between atoms: C_11  and  C_13 
REMARK    3  A    between atoms: C_12  and  C_14 
ROOT
ATOM      1  C   UNL d   1      15.061  -5.436  13.919  0.00  0.00     0.045 C 
ENDROOT
BRANCH   1   2
ATOM      2  C   UNL d   1      15.674  -4.117  13.422  0.00  0.00     0.045 C 
BRANCH   2   3
ATOM      3  C   UNL d   1      16.197  -3.243  14.535  0.00  0.00    -0.020 A 
ATOM      4  C   UNL d   1      15.303  -2.574  15.364  0.00  0.00     0.037 A 
ATOM      5 BR   UNL d   1      13.425  -2.802  15.046  0.00  0.00    -0.049 Br
ATOM      6  C   UNL d   1      15.785  -1.765  16.392  0.00  0.00     0.047 A 
ATOM      7 BR   UNL d   1      14.541  -0.839  17.531  0.00  0.00    -0.048 Br
ATOM      8  C   UNL d   1      17.160  -1.627  16.586  0.00  0.00     0.048 A 
ATOM      9 BR   UNL d   1      17.826  -0.511  18.004  0.00  0.00    -0.048 Br
ATOM     10  C   UNL d   1      18.052  -2.301  15.750  0.00  0.00     0.047 A 
ATOM     11 BR   UNL d   1      19.951  -2.126  16.004  0.00  0.00    -0.048 Br
ATOM     12  C   UNL d   1      17.568  -3.110  14.722  0.00  0.00     0.037 A 
ATOM     13 BR   UNL d   1      18.742  -4.060  13.540  0.00  0.00    -0.049 Br
ENDBRANCH   2   3
ENDBRANCH   1   2
BRANCH   1  14
ATOM     14  C   UNL d   1      16.078  -6.491  14.244  0.00  0.00    -0.020 A 
ATOM     15  C   UNL d   1      16.342  -6.819  15.574  0.00  0.00     0.037 A 
ATOM     16 BR   UNL d   1      15.372  -5.887  16.940  0.00  0.00    -0.049 Br
ATOM     17  C   UNL d   1      17.290  -7.797  15.877  0.00  0.00     0.047 A 
ATOM     18 BR   UNL d   1      17.646  -8.233  17.716  0.00  0.00    -0.048 Br
ATOM     19  C   UNL d   1      17.973  -8.448  14.850  0.00  0.00     0.048 A 
ATOM     20 BR   UNL d   1      19.280  -9.799  15.267  0.00  0.00    -0.048 Br
ATOM     21  C   UNL d   1      17.709  -8.120  13.519  0.00  0.00     0.047 A 
ATOM     22 BR   UNL d   1      18.639  -9.010  12.090  0.00  0.00    -0.048 Br
ATOM     23  C   UNL d   1      16.762  -7.142  13.217  0.00  0.00     0.037 A 
ATOM     24 BR   UNL d   1      16.354  -6.645  11.410  0.00  0.00    -0.049 Br
ENDBRANCH   1  14
TORSDOF 3
ENDMDL
MODEL 4
REMARK VINA RESULT:      -1.2      2.059      7.069
REMARK  3 active torsions:
REMARK  status: ('A' for Active; 'I' for Inactive)
REMARK    1  A    between atoms: C_11  and  C_12 
REMARK    2  A    between atoms: C_11  and  C_13 
REMARK    3  A    between atoms: C_12  and  C_14 
ROOT
ATOM      1  C   UNL d   1      15.525  -5.535  12.212  0.00  0.00     0.045 C 
ENDROOT
BRANCH   1   2
ATOM      2  C   UNL d   1      16.311  -6.841  12.407  0.00  0.00     0.045 C 
BRANCH   2   3
ATOM      3  C   UNL d   1      16.525  -7.200  13.857  0.00  0.00    -0.020 A 
ATOM      4  C   UNL d   1      15.477  -7.738  14.596  0.00  0.00     0.037 A 
ATOM      5 BR   UNL d   1      13.790  -8.000  13.720  0.00  0.00    -0.049 Br
ATOM      6  C   UNL d   1      15.673  -8.068  15.936  0.00  0.00     0.047 A 
ATOM      7 BR   UNL d   1      14.216  -8.806  16.952  0.00  0.00    -0.048 Br
ATOM      8  C   UNL d   1      16.917  -7.859  16.532  0.00  0.00     0.048 A 
ATOM      9 BR   UNL d   1      17.188  -8.315  18.381  0.00  0.00    -0.048 Br
ATOM     10  C   UNL d   1      17.965  -7.319  15.784  0.00  0.00     0.047 A 
ATOM     11 BR   UNL d   1      19.688  -7.027  16.589  0.00  0.00    -0.048 Br
ATOM     12  C   UNL d   1      17.767  -6.989  14.444  0.00  0.00     0.037 A 
ATOM     13 BR   UNL d   1      19.167  -6.243  13.365  0.00  0.00    -0.049 Br
ENDBRANCH   2   3
ENDBRANCH   1   2
BRANCH   1  14
ATOM     14  C   UNL d   1      16.388  -4.355  11.869  0.00  0.00    -0.020 A 
ATOM     15  C   UNL d   1      16.879  -4.205  10.572  0.00  0.00     0.037 A 
ATOM     16 BR   UNL d   1      16.417  -5.538   9.274  0.00  0.00    -0.049 Br
ATOM     17  C   UNL d   1      17.683  -3.110  10.253  0.00  0.00     0.047 A 
ATOM     18 BR   UNL d   1      18.357  -2.921   8.461  0.00  0.00    -0.048 Br
ATOM     19  C   UNL d   1      17.995  -2.165  11.231  0.00  0.00     0.048 A 
ATOM     20 BR   UNL d   1      19.104  -0.654  10.791  0.00  0.00    -0.048 Br
ATOM     21  C   UNL d   1      17.504  -2.316  12.528  0.00  0.00     0.047 A 
ATOM     22 BR   UNL d   1      17.921  -1.021  13.888  0.00  0.00    -0.048 Br
ATOM     23  C   UNL d   1      16.700  -3.411  12.846  0.00  0.00     0.037 A 
ATOM     24 BR   UNL d   1      15.994  -3.675  14.610  0.00  0.00    -0.049 Br
ENDBRANCH   1  14
TORSDOF 3
ENDMDL
MODEL 5
REMARK VINA RESULT:      -1.2      3.613      5.943
REMARK  3 active torsions:
REMARK  status: ('A' for Active; 'I' for Inactive)
REMARK    1  A    between atoms: C_11  and  C_12 
REMARK    2  A    between atoms: C_11  and  C_13 
REMARK    3  A    between atoms: C_12  and  C_14 
ROOT
ATOM      1  C   UNL d   1      14.701  -2.355  14.213  0.00  0.00     0.045 C 
ENDROOT
BRANCH   1   2
ATOM      2  C   UNL d   1      15.329  -0.982  14.502  0.00  0.00     0.045 C 
BRANCH   2   3
ATOM      3  C   UNL d   1      16.070  -0.927  15.816  0.00  0.00    -0.020 A 
ATOM      4  C   UNL d   1      15.358  -0.804  17.005  0.00  0.00     0.037 A 
ATOM      5 BR   UNL d   1      13.444  -0.711  16.910  0.00  0.00    -0.049 Br
ATOM      6  C   UNL d   1      16.041  -0.752  18.218  0.00  0.00     0.047 A 
ATOM      7 BR   UNL d   1      15.048  -0.577  19.857  0.00  0.00    -0.048 Br
ATOM      8  C   UNL d   1      17.434  -0.823  18.239  0.00  0.00     0.048 A 
ATOM      9 BR   UNL d   1      18.378  -0.751  19.914  0.00  0.00    -0.048 Br
ATOM     10  C   UNL d   1      18.143  -0.946  17.043  0.00  0.00     0.047 A 
ATOM     11 BR   UNL d   1      20.064  -1.048  17.052  0.00  0.00    -0.048 Br
ATOM     12  C   UNL d   1      17.458  -0.998  15.829  0.00  0.00     0.037 A 
ATOM     13 BR   UNL d   1      18.375  -1.165  14.152  0.00  0.00    -0.049 Br
ENDBRANCH   2   3
ENDBRANCH   1   2
BRANCH   1  14
ATOM     14  C   UNL d   1      15.628  -3.308  13.515  0.00  0.00    -0.020 A 
ATOM     15  C   UNL d   1      16.235  -4.340  14.230  0.00  0.00     0.037 A 
ATOM     16 BR   UNL d   1      15.848  -4.487  16.103  0.00  0.00    -0.049 Br
ATOM     17  C   UNL d   1      17.098  -5.224  13.582  0.00  0.00     0.047 A 
ATOM     18 BR   UNL d   1      17.933  -6.638  14.586  0.00  0.00    -0.048 Br
ATOM     19  C   UNL d   1      17.352  -5.078  12.219  0.00  0.00     0.048 A 
ATOM     20 BR   UNL d   1      18.542  -6.299  11.325  0.00  0.00    -0.048 Br
ATOM     21  C   UNL d   1      16.744  -4.046  11.503  0.00  0.00     0.047 A 
ATOM     22 BR   UNL d   1      17.080  -3.832   9.621  0.00  0.00    -0.048 Br
ATOM     23  C   UNL d   1      15.882  -3.162  12.152  0.00  0.00     0.037 A 
ATOM     24 BR   UNL d   1      15.016  -1.723  11.224  0.00  0.00    -0.049 Br
ENDBRANCH   1  14
TORSDOF 3
ENDMDL
MODEL 6
REMARK VINA RESULT:      -1.1      2.981      7.203
REMARK  3 active torsions:
REMARK  status: ('A' for Active; 'I' for Inactive)
REMARK    1  A    between atoms: C_11  and  C_12 
REMARK    2  A    between atoms: C_11  and  C_13 
REMARK    3  A    between atoms: C_12  and  C_14 
ROOT
ATOM      1  C   UNL d   1      17.481  -4.799  14.085  0.00  0.00     0.045 C 
ENDROOT
BRANCH   1   2
ATOM      2  C   UNL d   1      15.952  -4.911  14.196  0.00  0.00     0.045 C 
BRANCH   2   3
ATOM      3  C   UNL d   1      15.450  -4.865  15.618  0.00  0.00    -0.020 A 
ATOM      4  C   UNL d   1      14.900  -3.690  16.118  0.00  0.00     0.037 A 
ATOM      5 BR   UNL d   1      14.805  -2.167  14.955  0.00  0.00    -0.049 Br
ATOM      6  C   UNL d   1      14.438  -3.646  17.432  0.00  0.00     0.047 A 
ATOM      7 BR   UNL d   1      13.683  -2.014  18.117  0.00  0.00    -0.048 Br
ATOM      8  C   UNL d   1      14.529  -4.778  18.242  0.00  0.00     0.048 A 
ATOM      9 BR   UNL d   1      13.891  -4.718  20.057  0.00  0.00    -0.048 Br
ATOM     10  C   UNL d   1      15.082  -5.955  17.735  0.00  0.00     0.047 A 
ATOM     11 BR   UNL d   1      15.212  -7.527  18.837  0.00  0.00    -0.048 Br
ATOM     12  C   UNL d   1      15.545  -5.998  16.420  0.00  0.00     0.037 A 
ATOM     13 BR   UNL d   1      16.316  -7.583  15.666  0.00  0.00    -0.049 Br
ENDBRANCH   2   3
ENDBRANCH   1   2
BRANCH   1  14
ATOM     14  C   UNL d   1      17.942  -3.678  13.198  0.00  0.00    -0.020 A 
ATOM     15  C   UNL d   1      17.874  -3.813  11.812  0.00  0.00     0.037 A 
ATOM     16 BR   UNL d   1      17.184  -5.455  11.100  0.00  0.00    -0.049 Br
ATOM     17  C   UNL d   1      18.304  -2.773  10.987  0.00  0.00     0.047 A 
ATOM     18 BR   UNL d   1      18.210  -2.978   9.077  0.00  0.00    -0.048 Br
ATOM     19  C   UNL d   1      18.801  -1.597  11.549  0.00  0.00     0.048 A 
ATOM     20 BR   UNL d   1      19.394  -0.161  10.412  0.00  0.00    -0.048 Br
ATOM     21  C   UNL d   1      18.869  -1.462  12.937  0.00  0.00     0.047 A 
ATOM     22 BR   UNL d   1      19.548   0.154  13.729  0.00  0.00    -0.048 Br
ATOM     23  C   UNL d   1      18.439  -2.502  13.760  0.00  0.00     0.037 A 
ATOM     24 BR   UNL d   1      18.507  -2.379  15.673  0.00  0.00    -0.049 Br
ENDBRANCH   1  14
TORSDOF 3
ENDMDL
MODEL 7
REMARK VINA RESULT:      -1.1      3.131      7.267
REMARK  3 active torsions:
REMARK  status: ('A' for Active; 'I' for Inactive)
REMARK    1  A    between atoms: C_11  and  C_12 
REMARK    2  A    between atoms: C_11  and  C_13 
REMARK    3  A    between atoms: C_12  and  C_14 
ROOT
ATOM      1  C   UNL d   1      15.410  -7.923  12.124  0.00  0.00     0.045 C 
ENDROOT
BRANCH   1   2
ATOM      2  C   UNL d   1      16.423  -8.934  12.686  0.00  0.00     0.045 C 
BRANCH   2   3
ATOM      3  C   UNL d   1      16.612  -8.825  14.179  0.00  0.00    -0.020 A 
ATOM      4  C   UNL d   1      15.655  -9.358  15.036  0.00  0.00     0.037 A 
ATOM      5 BR   UNL d   1      14.124 -10.218  14.263  0.00  0.00    -0.049 Br
ATOM      6  C   UNL d   1      15.828  -9.256  16.415  0.00  0.00     0.047 A 
ATOM      7 BR   UNL d   1      14.496  -9.992  17.593  0.00  0.00    -0.048 Br
ATOM      8  C   UNL d   1      16.957  -8.621  16.933  0.00  0.00     0.048 A 
ATOM      9 BR   UNL d   1      17.196  -8.480  18.837  0.00  0.00    -0.048 Br
ATOM     10  C   UNL d   1      17.914  -8.087  16.068  0.00  0.00     0.047 A 
ATOM     11 BR   UNL d   1      19.479  -7.211  16.764  0.00  0.00    -0.048 Br
ATOM     12  C   UNL d   1      17.740  -8.189  14.688  0.00  0.00     0.037 A 
ATOM     13 BR   UNL d   1      19.017  -7.476  13.448  0.00  0.00    -0.049 Br
ENDBRANCH   2   3
ENDBRANCH   1   2
BRANCH   1  14
ATOM     14  C   UNL d   1      16.044  -6.768  11.404  0.00  0.00    -0.020 A 
ATOM     15  C   UNL d   1      16.121  -5.520  12.022  0.00  0.00     0.037 A 
ATOM     16 BR   UNL d   1      15.400  -5.344  13.790  0.00  0.00    -0.049 Br
ATOM     17  C   UNL d   1      16.708  -4.446  11.352  0.00  0.00     0.047 A 
ATOM     18 BR   UNL d   1      16.802  -2.729  12.216  0.00  0.00    -0.048 Br
ATOM     19  C   UNL d   1      17.218  -4.620  10.066  0.00  0.00     0.048 A 
ATOM     20 BR   UNL d   1      18.028  -3.138   9.142  0.00  0.00    -0.048 Br
ATOM     21  C   UNL d   1      17.140  -5.869   9.448  0.00  0.00     0.047 A 
ATOM     22 BR   UNL d   1      17.842  -6.128   7.676  0.00  0.00    -0.048 Br
ATOM     23  C   UNL d   1      16.554  -6.942  10.118  0.00  0.00     0.037 A 
ATOM     24 BR   UNL d   1      16.415  -8.683   9.324  0.00  0.00    -0.049 Br
ENDBRANCH   1  14
TORSDOF 3
ENDMDL
MODEL 8
REMARK VINA RESULT:      -1.1      3.484      5.004
REMARK  3 active torsions:
REMARK  status: ('A' for Active; 'I' for Inactive)
REMARK    1  A    between atoms: C_11  and  C_12 
REMARK    2  A    between atoms: C_11  and  C_13 
REMARK    3  A    between atoms: C_12  and  C_14 
ROOT
ATOM      1  C   UNL d   1      14.811  -5.433  14.120  0.00  0.00     0.045 C 
ENDROOT
BRANCH   1   2
ATOM      2  C   UNL d   1      13.785  -4.571  14.876  0.00  0.00     0.045 C 
BRANCH   2   3
ATOM      3  C   UNL d   1      14.326  -3.226  15.294  0.00  0.00    -0.020 A 
ATOM      4  C   UNL d   1      14.681  -3.008  16.622  0.00  0.00     0.037 A 
ATOM      5 BR   UNL d   1      14.461  -4.450  17.868  0.00  0.00    -0.049 Br
ATOM      6  C   UNL d   1      15.179  -1.766  17.009  0.00  0.00     0.047 A 
ATOM      7 BR   UNL d   1      15.662  -1.471  18.848  0.00  0.00    -0.048 Br
ATOM      8  C   UNL d   1      15.320  -0.745  16.069  0.00  0.00     0.048 A 
ATOM      9 BR   UNL d   1      16.008   0.970  16.603  0.00  0.00    -0.048 Br
ATOM     10  C   UNL d   1      14.963  -0.970  14.738  0.00  0.00     0.047 A 
ATOM     11 BR   UNL d   1      15.154   0.424  13.426  0.00  0.00    -0.048 Br
ATOM     12  C   UNL d   1      14.464  -2.214  14.351  0.00  0.00     0.037 A 
ATOM     13 BR   UNL d   1      13.954  -2.585  12.540  0.00  0.00    -0.049 Br
ENDBRANCH   2   3
ENDBRANCH   1   2
BRANCH   1  14
ATOM     14  C   UNL d   1      15.342  -6.583  14.924  0.00  0.00    -0.020 A 
ATOM     15  C   UNL d   1      14.561  -7.723  15.112  0.00  0.00     0.037 A 
ATOM     16 BR   UNL d   1      12.815  -7.758  14.318  0.00  0.00    -0.049 Br
ATOM     17  C   UNL d   1      15.053  -8.792  15.861  0.00  0.00     0.047 A 
ATOM     18 BR   UNL d   1      13.959 -10.354  16.116  0.00  0.00    -0.048 Br
ATOM     19  C   UNL d   1      16.328  -8.721  16.422  0.00  0.00     0.048 A 
ATOM     20 BR   UNL d   1      17.009 -10.197  17.455  0.00  0.00    -0.048 Br
ATOM     21  C   UNL d   1      17.111  -7.582  16.234  0.00  0.00     0.047 A 
ATOM     22 BR   UNL d   1      18.873  -7.469  16.997  0.00  0.00    -0.048 Br
ATOM     23  C   UNL d   1      16.617  -6.513  15.485  0.00  0.00     0.037 A 
ATOM     24 BR   UNL d   1      17.643  -4.919  15.191  0.00  0.00    -0.049 Br
ENDBRANCH   1  14
TORSDOF 3
ENDMDL
MODEL 9
REMARK VINA RESULT:      -1.0      3.799      7.245
REMARK  3 active torsions:
REMARK  status: ('A' for Active; 'I' for Inactive)
REMARK    1  A    between atoms: C_11  and  C_12 
REMARK    2  A    between atoms: C_11  and  C_13 
REMARK    3  A    between atoms: C_12  and  C_14 
ROOT
ATOM      1  C   UNL d   1      14.320  -7.290  13.860  0.00  0.00     0.045 C 
ENDROOT
BRANCH   1   2
ATOM      2  C   UNL d   1      13.539  -5.966  13.881  0.00  0.00     0.045 C 
BRANCH   2   3
ATOM      3  C   UNL d   1      12.659  -5.810  15.097  0.00  0.00    -0.020 A 
ATOM      4  C   UNL d   1      11.453  -6.501  15.168  0.00  0.00     0.037 A 
ATOM      5 BR   UNL d   1      10.967  -7.633  13.698  0.00  0.00    -0.049 Br
ATOM      6  C   UNL d   1      10.639  -6.356  16.290  0.00  0.00     0.047 A 
ATOM      7 BR   UNL d   1       8.971  -7.311  16.379  0.00  0.00    -0.048 Br
ATOM      8  C   UNL d   1      11.032  -5.520  17.336  0.00  0.00     0.048 A 
ATOM      9 BR   UNL d   1       9.908  -5.320  18.885  0.00  0.00    -0.048 Br
ATOM     10  C   UNL d   1      12.243  -4.829  17.257  0.00  0.00     0.047 A 
ATOM     11 BR   UNL d   1      12.803  -3.675  18.691  0.00  0.00    -0.048 Br
ATOM     12  C   UNL d   1      13.057  -4.975  16.134  0.00  0.00     0.037 A 
ATOM     13 BR   UNL d   1      14.730  -4.053  15.967  0.00  0.00    -0.049 Br
ENDBRANCH   2   3
ENDBRANCH   1   2
BRANCH   1  14
ATOM     14  C   UNL d   1      15.681  -7.200  14.486  0.00  0.00    -0.020 A 
ATOM     15  C   UNL d   1      15.893  -7.702  15.770  0.00  0.00     0.037 A 
ATOM     16 BR   UNL d   1      14.404  -8.496  16.682  0.00  0.00    -0.049 Br
ATOM     17  C   UNL d   1      17.157  -7.616  16.353  0.00  0.00     0.047 A 
ATOM     18 BR   UNL d   1      17.430  -8.308  18.127  0.00  0.00    -0.048 Br
ATOM     19  C   UNL d   1      18.210  -7.028  15.652  0.00  0.00     0.048 A 
ATOM     20 BR   UNL d   1      19.955  -6.910  16.457  0.00  0.00    -0.048 Br
ATOM     21  C   UNL d   1      17.999  -6.526  14.368  0.00  0.00     0.047 A 
ATOM     22 BR   UNL d   1      19.440  -5.716  13.385  0.00  0.00    -0.048 Br
ATOM     23  C   UNL d   1      16.734  -6.612  13.785  0.00  0.00     0.037 A 
ATOM     24 BR   UNL d   1      16.378  -5.940  12.024  0.00  0.00    -0.049 Br
ENDBRANCH   1  14
TORSDOF 3
ENDMDL
