MODEL 1
REMARK VINA RESULT:      -1.5      0.000      0.000
REMARK  2 active torsions:
REMARK  status: ('A' for Active; 'I' for Inactive)
REMARK    1  A    between atoms: O_11  and  C_12 
REMARK    2  A    between atoms: O_11  and  C_13 
ROOT
ATOM      1  O   UNL d   1      15.624  -4.630  14.420  0.00  0.00    -0.305 OA
ENDROOT
BRANCH   1   2
ATOM      2  C   UNL d   1      16.634  -5.530  14.702  0.00  0.00     0.113 A 
ATOM      3  C   UNL d   1      17.645  -5.734  13.774  0.00  0.00     0.065 A 
ATOM      4 BR   UNL d   1      17.578  -4.741  12.138  0.00  0.00    -0.046 Br
ATOM      5  C   UNL d   1      18.663  -6.645  14.058  0.00  0.00     0.050 A 
ATOM      6 BR   UNL d   1      20.061  -6.926  12.768  0.00  0.00    -0.048 Br
ATOM      7  C   UNL d   1      18.659  -7.342  15.265  0.00  0.00     0.048 A 
ATOM      8 BR   UNL d   1      20.062  -8.601  15.655  0.00  0.00    -0.048 Br
ATOM      9  C   UNL d   1      17.637  -7.128  16.190  0.00  0.00     0.050 A 
ATOM     10 BR   UNL d   1      17.612  -8.079  17.861  0.00  0.00    -0.048 Br
ATOM     11  C   UNL d   1      16.618  -6.218  15.907  0.00  0.00     0.065 A 
ATOM     12 BR   UNL d   1      15.182  -5.869  17.123  0.00  0.00    -0.046 Br
ENDBRANCH   1   2
BRANCH   1  13
ATOM     13  C   UNL d   1      15.362  -3.664  15.351  0.00  0.00     0.113 A 
ATOM     14  C   UNL d   1      14.062  -3.482  15.821  0.00  0.00     0.065 A 
ATOM     15 BR   UNL d   1      12.699  -4.627  15.113  0.00  0.00    -0.046 Br
ATOM     16  C   UNL d   1      13.795  -2.495  16.770  0.00  0.00     0.050 A 
ATOM     17 BR   UNL d   1      11.994  -2.260  17.402  0.00  0.00    -0.048 Br
ATOM     18  C   UNL d   1      14.828  -1.689  17.247  0.00  0.00     0.048 A 
ATOM     19 BR   UNL d   1      14.458  -0.325  18.554  0.00  0.00    -0.048 Br
ATOM     20  C   UNL d   1      16.128  -1.871  16.777  0.00  0.00     0.050 A 
ATOM     21 BR   UNL d   1      17.566  -0.770  17.423  0.00  0.00    -0.048 Br
ATOM     22  C   UNL d   1      16.395  -2.857  15.829  0.00  0.00     0.065 A 
ATOM     23 BR   UNL d   1      18.153  -3.169  15.135  0.00  0.00    -0.046 Br
ENDBRANCH   1  13
TORSDOF 2
ENDMDL
MODEL 2
REMARK VINA RESULT:      -1.4      2.180      4.143
REMARK  2 active torsions:
REMARK  status: ('A' for Active; 'I' for Inactive)
REMARK    1  A    between atoms: O_11  and  C_12 
REMARK    2  A    between atoms: O_11  and  C_13 
ROOT
ATOM      1  O   UNL d   1      16.610  -3.318  13.965  0.00  0.00    -0.305 OA
ENDROOT
BRANCH   1   2
ATOM      2  C   UNL d   1      16.636  -4.542  14.606  0.00  0.00     0.113 A 
ATOM      3  C   UNL d   1      15.468  -5.283  14.710  0.00  0.00     0.065 A 
ATOM      4 BR   UNL d   1      13.869  -4.554  13.949  0.00  0.00    -0.046 Br
ATOM      5  C   UNL d   1      15.495  -6.518  15.360  0.00  0.00     0.050 A 
ATOM      6 BR   UNL d   1      13.873  -7.540  15.505  0.00  0.00    -0.048 Br
ATOM      7  C   UNL d   1      16.689  -6.997  15.897  0.00  0.00     0.048 A 
ATOM      8 BR   UNL d   1      16.724  -8.699  16.796  0.00  0.00    -0.048 Br
ATOM      9  C   UNL d   1      17.856  -6.243  15.786  0.00  0.00     0.050 A 
ATOM     10 BR   UNL d   1      19.513  -6.886  16.520  0.00  0.00    -0.048 Br
ATOM     11  C   UNL d   1      17.830  -5.008  15.137  0.00  0.00     0.065 A 
ATOM     12 BR   UNL d   1      19.389  -3.914  14.943  0.00  0.00    -0.046 Br
ENDBRANCH   1   2
BRANCH   1  13
ATOM     13  C   UNL d   1      17.132  -2.246  14.630  0.00  0.00     0.113 A 
ATOM     14  C   UNL d   1      18.121  -1.465  14.031  0.00  0.00     0.065 A 
ATOM     15 BR   UNL d   1      18.692  -1.963  12.272  0.00  0.00    -0.046 Br
ATOM     16  C   UNL d   1      18.656  -0.373  14.713  0.00  0.00     0.050 A 
ATOM     17 BR   UNL d   1      20.021   0.687  13.868  0.00  0.00    -0.048 Br
ATOM     18  C   UNL d   1      18.203  -0.060  15.994  0.00  0.00     0.048 A 
ATOM     19 BR   UNL d   1      18.945   1.447  16.935  0.00  0.00    -0.048 Br
ATOM     20  C   UNL d   1      17.215  -0.839  16.593  0.00  0.00     0.050 A 
ATOM     21 BR   UNL d   1      16.576  -0.425  18.359  0.00  0.00    -0.048 Br
ATOM     22  C   UNL d   1      16.680  -1.933  15.913  0.00  0.00     0.065 A 
ATOM     23 BR   UNL d   1      15.321  -3.050  16.667  0.00  0.00    -0.046 Br
ENDBRANCH   1  13
TORSDOF 2
ENDMDL
MODEL 3
REMARK VINA RESULT:      -1.3      2.904      6.616
REMARK  2 active torsions:
REMARK  status: ('A' for Active; 'I' for Inactive)
REMARK    1  A    between atoms: O_11  and  C_12 
REMARK    2  A    between atoms: O_11  and  C_13 
ROOT
ATOM      1  O   UNL d   1      17.188  -7.356  13.995  0.00  0.00    -0.305 OA
ENDROOT
BRANCH   1   2
ATOM      2  C   UNL d   1      17.191  -6.077  14.519  0.00  0.00     0.113 A 
ATOM      3  C   UNL d   1      15.992  -5.495  14.905  0.00  0.00     0.065 A 
ATOM      4 BR   UNL d   1      14.385  -6.513  14.683  0.00  0.00    -0.046 Br
ATOM      5  C   UNL d   1      15.995  -4.203  15.432  0.00  0.00     0.050 A 
ATOM      6 BR   UNL d   1      14.331  -3.398  15.962  0.00  0.00    -0.048 Br
ATOM      7  C   UNL d   1      17.196  -3.508  15.567  0.00  0.00     0.048 A 
ATOM      8 BR   UNL d   1      17.200  -1.724  16.292  0.00  0.00    -0.048 Br
ATOM      9  C   UNL d   1      18.394  -4.104  15.176  0.00  0.00     0.050 A 
ATOM     10 BR   UNL d   1      20.062  -3.163  15.355  0.00  0.00    -0.048 Br
ATOM     11  C   UNL d   1      18.392  -5.396  14.649  0.00  0.00     0.065 A 
ATOM     12 BR   UNL d   1      19.994  -6.282  14.091  0.00  0.00    -0.046 Br
ENDBRANCH   1   2
BRANCH   1  13
ATOM     13  C   UNL d   1      16.555  -8.330  14.713  0.00  0.00     0.113 A 
ATOM     14  C   UNL d   1      16.903  -8.553  16.046  0.00  0.00     0.065 A 
ATOM     15 BR   UNL d   1      18.278  -7.450  16.795  0.00  0.00    -0.046 Br
ATOM     16  C   UNL d   1      16.258  -9.550  16.778  0.00  0.00     0.050 A 
ATOM     17 BR   UNL d   1      16.756  -9.842  18.612  0.00  0.00    -0.048 Br
ATOM     18  C   UNL d   1      15.265 -10.324  16.178  0.00  0.00     0.048 A 
ATOM     19 BR   UNL d   1      14.378 -11.702  17.188  0.00  0.00    -0.048 Br
ATOM     20  C   UNL d   1      14.918 -10.102  14.846  0.00  0.00     0.050 A 
ATOM     21 BR   UNL d   1      13.551 -11.158  14.000  0.00  0.00    -0.048 Br
ATOM     22  C   UNL d   1      15.562  -9.106  14.113  0.00  0.00     0.065 A 
ATOM     23 BR   UNL d   1      15.140  -8.739  12.282  0.00  0.00    -0.046 Br
ENDBRANCH   1  13
TORSDOF 2
ENDMDL
MODEL 4
REMARK VINA RESULT:      -1.3      2.756      5.041
REMARK  2 active torsions:
REMARK  status: ('A' for Active; 'I' for Inactive)
REMARK    1  A    between atoms: O_11  and  C_12 
REMARK    2  A    between atoms: O_11  and  C_13 
ROOT
ATOM      1  O   UNL d   1      15.682  -4.368  14.407  0.00  0.00    -0.305 OA
ENDROOT
BRANCH   1   2
ATOM      2  C   UNL d   1      16.302  -4.331  13.173  0.00  0.00     0.113 A 
ATOM      3  C   UNL d   1      16.990  -3.189  12.789  0.00  0.00     0.065 A 
ATOM      4 BR   UNL d   1      17.036  -1.714  14.010  0.00  0.00    -0.046 Br
ATOM      5  C   UNL d   1      17.614  -3.150  11.542  0.00  0.00     0.050 A 
ATOM      6 BR   UNL d   1      18.564  -1.564  11.013  0.00  0.00    -0.048 Br
ATOM      7  C   UNL d   1      17.545  -4.254  10.693  0.00  0.00     0.048 A 
ATOM      8 BR   UNL d   1      18.404  -4.199   8.971  0.00  0.00    -0.048 Br
ATOM      9  C   UNL d   1      16.850  -5.396  11.090  0.00  0.00     0.050 A 
ATOM     10 BR   UNL d   1      16.742  -6.929   9.934  0.00  0.00    -0.048 Br
ATOM     11  C   UNL d   1      16.225  -5.435  12.337  0.00  0.00     0.065 A 
ATOM     12 BR   UNL d   1      15.255  -6.965  12.954  0.00  0.00    -0.046 Br
ENDBRANCH   1   2
BRANCH   1  13
ATOM     13  C   UNL d   1      15.980  -5.416  15.231  0.00  0.00     0.113 A 
ATOM     14  C   UNL d   1      14.955  -6.176  15.794  0.00  0.00     0.065 A 
ATOM     15 BR   UNL d   1      13.155  -5.688  15.360  0.00  0.00    -0.046 Br
ATOM     16  C   UNL d   1      15.261  -7.244  16.638  0.00  0.00     0.050 A 
ATOM     17 BR   UNL d   1      13.832  -8.277  17.404  0.00  0.00    -0.048 Br
ATOM     18  C   UNL d   1      16.591  -7.551  16.920  0.00  0.00     0.048 A 
ATOM     19 BR   UNL d   1      17.012  -9.023  18.087  0.00  0.00    -0.048 Br
ATOM     20  C   UNL d   1      17.616  -6.791  16.358  0.00  0.00     0.050 A 
ATOM     21 BR   UNL d   1      19.458  -7.198  16.734  0.00  0.00    -0.048 Br
ATOM     22  C   UNL d   1      17.312  -5.723  15.515  0.00  0.00     0.065 A 
ATOM     23 BR   UNL d   1      18.662  -4.633  14.704  0.00  0.00    -0.046 Br
ENDBRANCH   1  13
TORSDOF 2
ENDMDL
MODEL 5
REMARK VINA RESULT:      -1.2      2.876      5.143
REMARK  2 active torsions:
REMARK  status: ('A' for Active; 'I' for Inactive)
REMARK    1  A    between atoms: O_11  and  C_12 
REMARK    2  A    between atoms: O_11  and  C_13 
ROOT
ATOM      1  O   UNL d   1      15.540  -4.645  14.222  0.00  0.00    -0.305 OA
ENDROOT
BRANCH   1   2
ATOM      2  C   UNL d   1      16.178  -4.671  12.996  0.00  0.00     0.113 A 
ATOM      3  C   UNL d   1      16.156  -5.834  12.241  0.00  0.00     0.065 A 
ATOM      4 BR   UNL d   1      15.233  -7.353  12.953  0.00  0.00    -0.046 Br
ATOM      5  C   UNL d   1      16.803  -5.862  11.004  0.00  0.00     0.050 A 
ATOM      6 BR   UNL d   1      16.774  -7.477   9.962  0.00  0.00    -0.048 Br
ATOM      7  C   UNL d   1      17.463  -4.725  10.537  0.00  0.00     0.048 A 
ATOM      8 BR   UNL d   1      18.357  -4.764   8.833  0.00  0.00    -0.048 Br
ATOM      9  C   UNL d   1      17.477  -3.562  11.306  0.00  0.00     0.050 A 
ATOM     10 BR   UNL d   1      18.381  -1.984  10.681  0.00  0.00    -0.048 Br
ATOM     11  C   UNL d   1      16.831  -3.535  12.543  0.00  0.00     0.065 A 
ATOM     12 BR   UNL d   1      16.805  -1.977  13.655  0.00  0.00    -0.046 Br
ENDBRANCH   1   2
BRANCH   1  13
ATOM     13  C   UNL d   1      15.864  -5.620  15.123  0.00  0.00     0.113 A 
ATOM     14  C   UNL d   1      14.858  -6.366  15.736  0.00  0.00     0.065 A 
ATOM     15 BR   UNL d   1      13.046  -5.963  15.261  0.00  0.00    -0.046 Br
ATOM     16  C   UNL d   1      15.189  -7.359  16.658  0.00  0.00     0.050 A 
ATOM     17 BR   UNL d   1      13.786  -8.374  17.493  0.00  0.00    -0.048 Br
ATOM     18  C   UNL d   1      16.526  -7.606  16.966  0.00  0.00     0.048 A 
ATOM     19 BR   UNL d   1      16.983  -8.975  18.241  0.00  0.00    -0.048 Br
ATOM     20  C   UNL d   1      17.532  -6.860  16.354  0.00  0.00     0.050 A 
ATOM     21 BR   UNL d   1      19.383  -7.185  16.765  0.00  0.00    -0.048 Br
ATOM     22  C   UNL d   1      17.202  -5.867  15.432  0.00  0.00     0.065 A 
ATOM     23 BR   UNL d   1      18.524  -4.801  14.548  0.00  0.00    -0.046 Br
ENDBRANCH   1  13
TORSDOF 2
ENDMDL
MODEL 6
REMARK VINA RESULT:      -1.2      3.831      6.320
REMARK  2 active torsions:
REMARK  status: ('A' for Active; 'I' for Inactive)
REMARK    1  A    between atoms: O_11  and  C_12 
REMARK    2  A    between atoms: O_11  and  C_13 
ROOT
ATOM      1  O   UNL d   1      16.118  -5.850  11.820  0.00  0.00    -0.305 OA
ENDROOT
BRANCH   1   2
ATOM      2  C   UNL d   1      16.749  -5.282  10.729  0.00  0.00     0.113 A 
ATOM      3  C   UNL d   1      17.868  -5.899  10.190  0.00  0.00     0.065 A 
ATOM      4 BR   UNL d   1      18.480  -7.522  11.003  0.00  0.00    -0.046 Br
ATOM      5  C   UNL d   1      18.507  -5.323   9.091  0.00  0.00     0.050 A 
ATOM      6 BR   UNL d   1      20.060  -6.180   8.349  0.00  0.00    -0.048 Br
ATOM      7  C   UNL d   1      18.018  -4.138   8.543  0.00  0.00     0.048 A 
ATOM      8 BR   UNL d   1      18.900  -3.343   7.028  0.00  0.00    -0.048 Br
ATOM      9  C   UNL d   1      16.892  -3.528   9.094  0.00  0.00     0.050 A 
ATOM     10 BR   UNL d   1      16.201  -1.893   8.352  0.00  0.00    -0.048 Br
ATOM     11  C   UNL d   1      16.253  -4.102  10.193  0.00  0.00     0.065 A 
ATOM     12 BR   UNL d   1      14.703  -3.326  11.004  0.00  0.00    -0.046 Br
ENDBRANCH   1   2
BRANCH   1  13
ATOM     13  C   UNL d   1      16.886  -6.140  12.912  0.00  0.00     0.113 A 
ATOM     14  C   UNL d   1      16.862  -7.422  13.462  0.00  0.00     0.065 A 
ATOM     15 BR   UNL d   1      15.727  -8.719  12.627  0.00  0.00    -0.046 Br
ATOM     16  C   UNL d   1      17.644  -7.716  14.579  0.00  0.00     0.050 A 
ATOM     17 BR   UNL d   1      17.593  -9.489  15.323  0.00  0.00    -0.048 Br
ATOM     18  C   UNL d   1      18.449  -6.729  15.146  0.00  0.00     0.048 A 
ATOM     19 BR   UNL d   1      19.526  -7.136  16.690  0.00  0.00    -0.048 Br
ATOM     20  C   UNL d   1      18.473  -5.448  14.597  0.00  0.00     0.050 A 
ATOM     21 BR   UNL d   1      19.577  -4.073  15.364  0.00  0.00    -0.048 Br
ATOM     22  C   UNL d   1      17.691  -5.153  13.481  0.00  0.00     0.065 A 
ATOM     23 BR   UNL d   1      17.670  -3.419  12.668  0.00  0.00    -0.046 Br
ENDBRANCH   1  13
TORSDOF 2
ENDMDL
MODEL 7
REMARK VINA RESULT:      -1.2      3.077      5.559
REMARK  2 active torsions:
REMARK  status: ('A' for Active; 'I' for Inactive)
REMARK    1  A    between atoms: O_11  and  C_12 
REMARK    2  A    between atoms: O_11  and  C_13 
ROOT
ATOM      1  O   UNL d   1      15.735  -4.997  13.570  0.00  0.00    -0.305 OA
ENDROOT
BRANCH   1   2
ATOM      2  C   UNL d   1      16.248  -5.373  12.343  0.00  0.00     0.113 A 
ATOM      3  C   UNL d   1      16.881  -4.428  11.549  0.00  0.00     0.065 A 
ATOM      4 BR   UNL d   1      17.004  -2.635  12.210  0.00  0.00    -0.046 Br
ATOM      5  C   UNL d   1      17.397  -4.808  10.310  0.00  0.00     0.050 A 
ATOM      6 BR   UNL d   1      18.270  -3.494   9.211  0.00  0.00    -0.048 Br
ATOM      7  C   UNL d   1      17.275  -6.128   9.879  0.00  0.00     0.048 A 
ATOM      8 BR   UNL d   1      17.985  -6.651   8.168  0.00  0.00    -0.048 Br
ATOM      9  C   UNL d   1      16.638  -7.069  10.687  0.00  0.00     0.050 A 
ATOM     10 BR   UNL d   1      16.460  -8.895  10.111  0.00  0.00    -0.048 Br
ATOM     11  C   UNL d   1      16.121  -6.690  11.926  0.00  0.00     0.065 A 
ATOM     12 BR   UNL d   1      15.233  -7.922  13.091  0.00  0.00    -0.046 Br
ENDBRANCH   1   2
BRANCH   1  13
ATOM     13  C   UNL d   1      16.103  -5.733  14.661  0.00  0.00     0.113 A 
ATOM     14  C   UNL d   1      17.454  -5.949  14.934  0.00  0.00     0.065 A 
ATOM     15 BR   UNL d   1      18.731  -5.179  13.731  0.00  0.00    -0.046 Br
ATOM     16  C   UNL d   1      17.829  -6.702  16.045  0.00  0.00     0.050 A 
ATOM     17 BR   UNL d   1      19.697  -6.990  16.401  0.00  0.00    -0.048 Br
ATOM     18  C   UNL d   1      16.854  -7.241  16.885  0.00  0.00     0.048 A 
ATOM     19 BR   UNL d   1      17.373  -8.283  18.417  0.00  0.00    -0.048 Br
ATOM     20  C   UNL d   1      15.504  -7.025  16.612  0.00  0.00     0.050 A 
ATOM     21 BR   UNL d   1      14.144  -7.758  17.757  0.00  0.00    -0.048 Br
ATOM     22  C   UNL d   1      15.128  -6.272  15.500  0.00  0.00     0.065 A 
ATOM     23 BR   UNL d   1      13.296  -5.931  15.059  0.00  0.00    -0.046 Br
ENDBRANCH   1  13
TORSDOF 2
ENDMDL
MODEL 8
REMARK VINA RESULT:      -1.1      2.344      3.714
REMARK  2 active torsions:
REMARK  status: ('A' for Active; 'I' for Inactive)
REMARK    1  A    between atoms: O_11  and  C_12 
REMARK    2  A    between atoms: O_11  and  C_13 
ROOT
ATOM      1  O   UNL d   1      14.904  -6.620  14.692  0.00  0.00    -0.305 OA
ENDROOT
BRANCH   1   2
ATOM      2  C   UNL d   1      15.555  -7.771  15.092  0.00  0.00     0.113 A 
ATOM      3  C   UNL d   1      15.936  -8.705  14.140  0.00  0.00     0.065 A 
ATOM      4 BR   UNL d   1      15.528  -8.337  12.305  0.00  0.00    -0.046 Br
ATOM      5  C   UNL d   1      16.591  -9.869  14.544  0.00  0.00     0.050 A 
ATOM      6 BR   UNL d   1      17.113 -11.163  13.221  0.00  0.00    -0.048 Br
ATOM      7  C   UNL d   1      16.859 -10.085  15.895  0.00  0.00     0.048 A 
ATOM      8 BR   UNL d   1      17.761 -11.692  16.453  0.00  0.00    -0.048 Br
ATOM      9  C   UNL d   1      16.471  -9.138  16.843  0.00  0.00     0.050 A 
ATOM     10 BR   UNL d   1      16.831  -9.417  18.711  0.00  0.00    -0.048 Br
ATOM     11  C   UNL d   1      15.816  -7.975  16.439  0.00  0.00     0.065 A 
ATOM     12 BR   UNL d   1      15.253  -6.628  17.678  0.00  0.00    -0.046 Br
ENDBRANCH   1   2
BRANCH   1  13
ATOM     13  C   UNL d   1      15.418  -5.426  15.113  0.00  0.00     0.113 A 
ATOM     14  C   UNL d   1      16.767  -5.136  14.909  0.00  0.00     0.065 A 
ATOM     15 BR   UNL d   1      17.832  -6.464  14.030  0.00  0.00    -0.046 Br
ATOM     16  C   UNL d   1      17.292  -3.918  15.341  0.00  0.00     0.050 A 
ATOM     17 BR   UNL d   1      19.155  -3.541  15.052  0.00  0.00    -0.048 Br
ATOM     18  C   UNL d   1      16.469  -2.990  15.978  0.00  0.00     0.048 A 
ATOM     19 BR   UNL d   1      17.195  -1.311  16.577  0.00  0.00    -0.048 Br
ATOM     20  C   UNL d   1      15.121  -3.280  16.183  0.00  0.00     0.050 A 
ATOM     21 BR   UNL d   1      13.968  -2.014  17.059  0.00  0.00    -0.048 Br
ATOM     22  C   UNL d   1      14.595  -4.497  15.751  0.00  0.00     0.065 A 
ATOM     23 BR   UNL d   1      12.755  -4.969  15.994  0.00  0.00    -0.046 Br
ENDBRANCH   1  13
TORSDOF 2
ENDMDL
MODEL 9
REMARK VINA RESULT:      -1.1      2.293      6.639
REMARK  2 active torsions:
REMARK  status: ('A' for Active; 'I' for Inactive)
REMARK    1  A    between atoms: O_11  and  C_12 
REMARK    2  A    between atoms: O_11  and  C_13 
ROOT
ATOM      1  O   UNL d   1      14.014  -6.073  15.216  0.00  0.00    -0.305 OA
ENDROOT
BRANCH   1   2
ATOM      2  C   UNL d   1      13.304  -5.174  15.989  0.00  0.00     0.113 A 
ATOM      3  C   UNL d   1      13.492  -5.157  17.363  0.00  0.00     0.065 A 
ATOM      4 BR   UNL d   1      14.740  -6.400  18.115  0.00  0.00    -0.046 Br
ATOM      5  C   UNL d   1      12.773  -4.251  18.143  0.00  0.00     0.050 A 
ATOM      6 BR   UNL d   1      13.034  -4.234  20.048  0.00  0.00    -0.048 Br
ATOM      7  C   UNL d   1      11.875  -3.371  17.540  0.00  0.00     0.048 A 
ATOM      8 BR   UNL d   1      10.881  -2.122  18.617  0.00  0.00    -0.048 Br
ATOM      9  C   UNL d   1      11.695  -3.398  16.158  0.00  0.00     0.050 A 
ATOM     10 BR   UNL d   1      10.461  -2.193  15.307  0.00  0.00    -0.048 Br
ATOM     11  C   UNL d   1      12.413  -4.304  15.377  0.00  0.00     0.065 A 
ATOM     12 BR   UNL d   1      12.222  -4.401  13.475  0.00  0.00    -0.046 Br
ENDBRANCH   1   2
BRANCH   1  13
ATOM     13  C   UNL d   1      15.371  -6.102  15.369  0.00  0.00     0.113 A 
ATOM     14  C   UNL d   1      16.112  -4.926  15.252  0.00  0.00     0.065 A 
ATOM     15 BR   UNL d   1      15.151  -3.312  14.876  0.00  0.00    -0.046 Br
ATOM     16  C   UNL d   1      17.498  -4.956  15.405  0.00  0.00     0.050 A 
ATOM     17 BR   UNL d   1      18.499  -3.323  15.236  0.00  0.00    -0.048 Br
ATOM     18  C   UNL d   1      18.144  -6.162  15.675  0.00  0.00     0.048 A 
ATOM     19 BR   UNL d   1      20.057  -6.204  15.883  0.00  0.00    -0.048 Br
ATOM     20  C   UNL d   1      17.404  -7.338  15.792  0.00  0.00     0.050 A 
ATOM     21 BR   UNL d   1      18.275  -9.012  16.164  0.00  0.00    -0.048 Br
ATOM     22  C   UNL d   1      16.018  -7.309  15.638  0.00  0.00     0.065 A 
ATOM     23 BR   UNL d   1      14.932  -8.879  15.785  0.00  0.00    -0.046 Br
ENDBRANCH   1  13
TORSDOF 2
ENDMDL
