MODEL 1
REMARK VINA RESULT:      -1.7      0.000      0.000
REMARK  8 active torsions:
REMARK  status: ('A' for Active; 'I' for Inactive)
REMARK    1  A    between atoms: O_4  and  C_14 
REMARK    2  A    between atoms: O_4  and  C_18 
REMARK    3  A    between atoms: O_5  and  C_17 
REMARK    4  A    between atoms: O_7  and  C_23 
REMARK    5  A    between atoms: N_8  and  CA_10 
REMARK    6  A    between atoms: C_9  and  CA_10 
REMARK    7  A    between atoms: C_9  and  C_11 
REMARK    8  A    between atoms: CA_10  and  C_17 
ROOT
ATOM      1  I   UNL d   1      13.808  -3.499  12.445  0.00  0.00    -0.042 I 
ATOM      2  I   UNL d   1      19.421  -2.020  14.331  0.00  0.00    -0.042 I 
ATOM      3  C   UNL d   1      16.597  -5.144  15.309  0.00  0.00    -0.053 A 
ATOM      4  C   UNL d   1      17.712  -4.323  15.257  0.00  0.00     0.028 A 
ATOM      5  C   UNL d   1      15.490  -4.908  14.510  0.00  0.00     0.028 A 
ATOM      6  C   UNL d   1      16.612  -2.986  13.571  0.00  0.00     0.109 A 
ATOM      7  C   UNL d   1      15.498  -3.822  13.636  0.00  0.00     0.042 A 
ATOM      8  C   UNL d   1      17.719  -3.237  14.382  0.00  0.00     0.042 A 
ENDROOT
BRANCH   6   9
ATOM      9  O   UNL d   1      16.620  -1.923  12.714  0.00  0.00    -0.308 OA
BRANCH   9  10
ATOM     10  C   UNL d   1      17.283  -2.078  11.510  0.00  0.00     0.077 A 
ATOM     11  C   UNL d   1      17.820  -0.965  10.886  0.00  0.00     0.058 A 
ATOM     12  C   UNL d   1      18.488  -1.122   9.672  0.00  0.00     0.042 A 
ATOM     13  I   UNL d   1      19.290   0.572   8.747  0.00  0.00    -0.042 I 
ATOM     14  C   UNL d   1      18.610  -2.390   9.102  0.00  0.00     0.082 A 
ATOM     15  C   UNL d   1      18.063  -3.500   9.745  0.00  0.00     0.040 A 
ATOM     16  C   UNL d   1      17.395  -3.342  10.959  0.00  0.00     0.040 A 
BRANCH  14  17
ATOM     17  O   UNL d   1      19.256  -2.586   7.917  0.00  0.00    -0.359 OA
ATOM     18  H   UNL d   1      18.623  -2.484   7.185  0.00  0.00     0.217 HD
ENDBRANCH  14  17
ENDBRANCH   9  10
ENDBRANCH   6   9
BRANCH   3  19
ATOM     19  C   UNL d   1      16.589  -6.321  16.256  0.00  0.00     0.085 C 
BRANCH  19  20
ATOM     20  CA  UNL d   1      17.796  -7.251  16.063  0.00  0.00     0.318 C 
BRANCH  20  21
ATOM     21  N   UNL d   1      17.335  -8.620  15.843  0.00  0.00     0.093 N 
ATOM     22  H1  UNL d   1      17.357  -9.134  16.723  0.00  0.00     0.314 HD
ATOM     23  H2  UNL d   1      17.981  -9.107  15.222  0.00  0.00     0.314 HD
ENDBRANCH  20  21
BRANCH  20  24
ATOM     24  C   UNL d   1      18.693  -7.286  17.288  0.00  0.00     0.174 C 
ATOM     25  OXT UNL d   1      19.853  -6.897  17.317  0.00  0.00    -0.648 OA
BRANCH  24  26
ATOM     26  O   UNL d   1      18.051  -7.769  18.385  0.00  0.00    -0.775 OA
ATOM     27  H   UNL d   1      18.171  -7.186  19.164  0.00  0.00     0.167 HD
ENDBRANCH  24  26
ENDBRANCH  20  24
ENDBRANCH  19  20
ENDBRANCH   3  19
TORSDOF 8
ENDMDL
MODEL 2
REMARK VINA RESULT:      -1.5      4.385      7.070
REMARK  8 active torsions:
REMARK  status: ('A' for Active; 'I' for Inactive)
REMARK    1  A    between atoms: O_4  and  C_14 
REMARK    2  A    between atoms: O_4  and  C_18 
REMARK    3  A    between atoms: O_5  and  C_17 
REMARK    4  A    between atoms: O_7  and  C_23 
REMARK    5  A    between atoms: N_8  and  CA_10 
REMARK    6  A    between atoms: C_9  and  CA_10 
REMARK    7  A    between atoms: C_9  and  C_11 
REMARK    8  A    between atoms: CA_10  and  C_17 
ROOT
ATOM      1  I   UNL d   1      14.290  -4.656  13.489  0.00  0.00    -0.042 I 
ATOM      2  I   UNL d   1      20.042  -5.647  15.273  0.00  0.00    -0.042 I 
ATOM      3  C   UNL d   1      17.337  -2.278  15.423  0.00  0.00    -0.053 A 
ATOM      4  C   UNL d   1      18.438  -3.111  15.546  0.00  0.00     0.028 A 
ATOM      5  C   UNL d   1      16.161  -2.718  14.840  0.00  0.00     0.028 A 
ATOM      6  C   UNL d   1      17.182  -4.878  14.479  0.00  0.00     0.109 A 
ATOM      7  C   UNL d   1      16.083  -4.027  14.364  0.00  0.00     0.042 A 
ATOM      8  C   UNL d   1      18.360  -4.419  15.070  0.00  0.00     0.042 A 
ENDROOT
BRANCH   6   9
ATOM      9  O   UNL d   1      17.106  -6.160  14.014  0.00  0.00    -0.308 OA
BRANCH   9  10
ATOM     10  C   UNL d   1      16.859  -7.160  14.937  0.00  0.00     0.077 A 
ATOM     11  C   UNL d   1      16.182  -6.852  16.104  0.00  0.00     0.058 A 
ATOM     12  C   UNL d   1      15.934  -7.862  17.033  0.00  0.00     0.042 A 
ATOM     13  I   UNL d   1      14.911  -7.372  18.789  0.00  0.00    -0.042 I 
ATOM     14  C   UNL d   1      16.367  -9.164  16.781  0.00  0.00     0.082 A 
ATOM     15  C   UNL d   1      17.048  -9.456  15.600  0.00  0.00     0.040 A 
ATOM     16  C   UNL d   1      17.295  -8.446  14.670  0.00  0.00     0.040 A 
BRANCH  14  17
ATOM     17  O   UNL d   1      16.145 -10.179  17.664  0.00  0.00    -0.359 OA
ATOM     18  H   UNL d   1      16.724 -10.928  17.445  0.00  0.00     0.217 HD
ENDBRANCH  14  17
ENDBRANCH   9  10
ENDBRANCH   6   9
BRANCH   3  19
ATOM     19  C   UNL d   1      17.422  -0.861  15.939  0.00  0.00     0.085 C 
BRANCH  19  20
ATOM     20  CA  UNL d   1      17.302  -0.773  17.469  0.00  0.00     0.318 C 
BRANCH  20  21
ATOM     21  N   UNL d   1      16.386   0.306  17.832  0.00  0.00     0.093 N 
ATOM     22  H1  UNL d   1      16.917   1.105  18.175  0.00  0.00     0.314 HD
ATOM     23  H2  UNL d   1      15.795   0.011  18.610  0.00  0.00     0.314 HD
ENDBRANCH  20  21
BRANCH  20  24
ATOM     24  C   UNL d   1      18.632  -0.455  18.129  0.00  0.00     0.174 C 
ATOM     25  OXT UNL d   1      19.569  -1.237  18.227  0.00  0.00    -0.648 OA
BRANCH  24  26
ATOM     26  O   UNL d   1      18.692   0.826  18.579  0.00  0.00    -0.775 OA
ATOM     27  H   UNL d   1      18.464   0.889  19.530  0.00  0.00     0.167 HD
ENDBRANCH  24  26
ENDBRANCH  20  24
ENDBRANCH  19  20
ENDBRANCH   3  19
TORSDOF 8
ENDMDL
MODEL 3
REMARK VINA RESULT:      -1.4      3.992      7.940
REMARK  8 active torsions:
REMARK  status: ('A' for Active; 'I' for Inactive)
REMARK    1  A    between atoms: O_4  and  C_14 
REMARK    2  A    between atoms: O_4  and  C_18 
REMARK    3  A    between atoms: O_5  and  C_17 
REMARK    4  A    between atoms: O_7  and  C_23 
REMARK    5  A    between atoms: N_8  and  CA_10 
REMARK    6  A    between atoms: C_9  and  CA_10 
REMARK    7  A    between atoms: C_9  and  C_11 
REMARK    8  A    between atoms: CA_10  and  C_17 
ROOT
ATOM      1  I   UNL d   1      14.310  -6.895  13.769  0.00  0.00    -0.042 I 
ATOM      2  I   UNL d   1      19.828  -9.348  12.881  0.00  0.00    -0.042 I 
ATOM      3  C   UNL d   1      17.792  -5.815  11.446  0.00  0.00    -0.053 A 
ATOM      4  C   UNL d   1      18.724  -6.812  11.686  0.00  0.00     0.028 A 
ATOM      5  C   UNL d   1      16.540  -5.840  12.037  0.00  0.00     0.028 A 
ATOM      6  C   UNL d   1      17.137  -7.902  13.145  0.00  0.00     0.109 A 
ATOM      7  C   UNL d   1      16.210  -6.891  12.893  0.00  0.00     0.042 A 
ATOM      8  C   UNL d   1      18.394  -7.862  12.542  0.00  0.00     0.042 A 
ENDROOT
BRANCH   6   9
ATOM      9  O   UNL d   1      16.815  -8.931  13.984  0.00  0.00    -0.308 OA
BRANCH   9  10
ATOM     10  C   UNL d   1      16.999  -8.732  15.340  0.00  0.00     0.077 A 
ATOM     11  C   UNL d   1      16.320  -9.535  16.240  0.00  0.00     0.058 A 
ATOM     12  C   UNL d   1      16.507  -9.333  17.607  0.00  0.00     0.042 A 
ATOM     13  I   UNL d   1      15.470 -10.557  18.947  0.00  0.00    -0.042 I 
ATOM     14  C   UNL d   1      17.370  -8.332  18.053  0.00  0.00     0.082 A 
ATOM     15  C   UNL d   1      18.047  -7.533  17.132  0.00  0.00     0.040 A 
ATOM     16  C   UNL d   1      17.859  -7.735  15.765  0.00  0.00     0.040 A 
BRANCH  14  17
ATOM     17  O   UNL d   1      17.580  -8.103  19.381  0.00  0.00    -0.359 OA
ATOM     18  H   UNL d   1      18.535  -8.019  19.545  0.00  0.00     0.217 HD
ENDBRANCH  14  17
ENDBRANCH   9  10
ENDBRANCH   6   9
BRANCH   3  19
ATOM     19  C   UNL d   1      18.149  -4.677  10.519  0.00  0.00     0.085 C 
BRANCH  19  20
ATOM     20  CA  UNL d   1      17.887  -3.296  11.140  0.00  0.00     0.318 C 
BRANCH  20  21
ATOM     21  N   UNL d   1      18.044  -2.258  10.123  0.00  0.00     0.093 N 
ATOM     22  H1  UNL d   1      17.616  -1.393  10.448  0.00  0.00     0.314 HD
ATOM     23  H2  UNL d   1      17.534  -2.521   9.280  0.00  0.00     0.314 HD
ENDBRANCH  20  21
BRANCH  20  24
ATOM     24  C   UNL d   1      18.872  -2.971  12.249  0.00  0.00     0.174 C 
ATOM     25  OXT UNL d   1      20.090  -2.955  12.121  0.00  0.00    -0.648 OA
BRANCH  24  26
ATOM     26  O   UNL d   1      18.251  -2.658  13.417  0.00  0.00    -0.775 OA
ATOM     27  H   UNL d   1      18.021  -1.706  13.464  0.00  0.00     0.167 HD
ENDBRANCH  24  26
ENDBRANCH  20  24
ENDBRANCH  19  20
ENDBRANCH   3  19
TORSDOF 8
ENDMDL
MODEL 4
REMARK VINA RESULT:      -1.3      5.056      6.874
REMARK  8 active torsions:
REMARK  status: ('A' for Active; 'I' for Inactive)
REMARK    1  A    between atoms: O_4  and  C_14 
REMARK    2  A    between atoms: O_4  and  C_18 
REMARK    3  A    between atoms: O_5  and  C_17 
REMARK    4  A    between atoms: O_7  and  C_23 
REMARK    5  A    between atoms: N_8  and  CA_10 
REMARK    6  A    between atoms: C_9  and  CA_10 
REMARK    7  A    between atoms: C_9  and  C_11 
REMARK    8  A    between atoms: CA_10  and  C_17 
ROOT
ATOM      1  I   UNL d   1      13.803  -6.547  12.111  0.00  0.00    -0.042 I 
ATOM      2  I   UNL d   1      13.274  -7.902  18.038  0.00  0.00    -0.042 I 
ATOM      3  C   UNL d   1      16.582  -7.484  15.286  0.00  0.00    -0.053 A 
ATOM      4  C   UNL d   1      15.803  -7.695  16.413  0.00  0.00     0.028 A 
ATOM      5  C   UNL d   1      16.013  -7.158  14.066  0.00  0.00     0.028 A 
ATOM      6  C   UNL d   1      13.829  -7.250  15.094  0.00  0.00     0.109 A 
ATOM      7  C   UNL d   1      14.627  -7.041  13.970  0.00  0.00     0.042 A 
ATOM      8  C   UNL d   1      14.417  -7.577  16.316  0.00  0.00     0.042 A 
ENDROOT
BRANCH   6   9
ATOM      9  O   UNL d   1      12.471  -7.134  14.999  0.00  0.00    -0.308 OA
BRANCH   9  10
ATOM     10  C   UNL d   1      11.924  -5.874  15.161  0.00  0.00     0.077 A 
ATOM     11  C   UNL d   1      10.580  -5.680  14.893  0.00  0.00     0.058 A 
ATOM     12  C   UNL d   1      10.030  -4.409  15.056  0.00  0.00     0.042 A 
ATOM     13  I   UNL d   1       7.999  -4.140  14.643  0.00  0.00    -0.042 I 
ATOM     14  C   UNL d   1      10.833  -3.352  15.486  0.00  0.00     0.082 A 
ATOM     15  C   UNL d   1      12.185  -3.566  15.753  0.00  0.00     0.040 A 
ATOM     16  C   UNL d   1      12.734  -4.837  15.589  0.00  0.00     0.040 A 
BRANCH  14  17
ATOM     17  O   UNL d   1      10.334  -2.094  15.658  0.00  0.00    -0.359 OA
ATOM     18  H   UNL d   1      10.828  -1.647  16.367  0.00  0.00     0.217 HD
ENDBRANCH  14  17
ENDBRANCH   9  10
ENDBRANCH   6   9
BRANCH   3  19
ATOM     19  C   UNL d   1      18.084  -7.611  15.392  0.00  0.00     0.085 C 
BRANCH  19  20
ATOM     20  CA  UNL d   1      18.825  -6.356  14.907  0.00  0.00     0.318 C 
BRANCH  20  21
ATOM     21  N   UNL d   1      19.713  -6.702  13.800  0.00  0.00     0.093 N 
ATOM     22  H1  UNL d   1      20.211  -7.564  14.017  0.00  0.00     0.314 HD
ATOM     23  H2  UNL d   1      20.432  -5.986  13.696  0.00  0.00     0.314 HD
ENDBRANCH  20  21
BRANCH  20  24
ATOM     24  C   UNL d   1      19.699  -5.753  15.993  0.00  0.00     0.174 C 
ATOM     25  OXT UNL d   1      20.089  -4.593  16.014  0.00  0.00    -0.648 OA
BRANCH  24  26
ATOM     26  O   UNL d   1      19.981  -6.642  16.982  0.00  0.00    -0.775 OA
ATOM     27  H   UNL d   1      19.198  -6.822  17.544  0.00  0.00     0.167 HD
ENDBRANCH  24  26
ENDBRANCH  20  24
ENDBRANCH  19  20
ENDBRANCH   3  19
TORSDOF 8
ENDMDL
MODEL 5
REMARK VINA RESULT:      -1.3      3.420      3.909
REMARK  8 active torsions:
REMARK  status: ('A' for Active; 'I' for Inactive)
REMARK    1  A    between atoms: O_4  and  C_14 
REMARK    2  A    between atoms: O_4  and  C_18 
REMARK    3  A    between atoms: O_5  and  C_17 
REMARK    4  A    between atoms: O_7  and  C_23 
REMARK    5  A    between atoms: N_8  and  CA_10 
REMARK    6  A    between atoms: C_9  and  CA_10 
REMARK    7  A    between atoms: C_9  and  C_11 
REMARK    8  A    between atoms: CA_10  and  C_17 
ROOT
ATOM      1  I   UNL d   1      13.890  -7.510  10.761  0.00  0.00    -0.042 I 
ATOM      2  I   UNL d   1      19.809  -6.282   9.920  0.00  0.00    -0.042 I 
ATOM      3  C   UNL d   1      17.353  -7.274  13.337  0.00  0.00    -0.053 A 
ATOM      4  C   UNL d   1      18.414  -6.947  12.507  0.00  0.00     0.028 A 
ATOM      5  C   UNL d   1      16.070  -7.433  12.840  0.00  0.00     0.028 A 
ATOM      6  C   UNL d   1      16.897  -6.931  10.626  0.00  0.00     0.109 A 
ATOM      7  C   UNL d   1      15.841  -7.260  11.475  0.00  0.00     0.042 A 
ATOM      8  C   UNL d   1      18.183  -6.774  11.142  0.00  0.00     0.042 A 
ENDROOT
BRANCH   6   9
ATOM      9  O   UNL d   1      16.672  -6.763   9.289  0.00  0.00    -0.308 OA
BRANCH   9  10
ATOM     10  C   UNL d   1      16.522  -5.469   8.825  0.00  0.00     0.077 A 
ATOM     11  C   UNL d   1      16.744  -5.201   7.485  0.00  0.00     0.058 A 
ATOM     12  C   UNL d   1      16.592  -3.896   7.018  0.00  0.00     0.042 A 
ATOM     13  I   UNL d   1      16.934  -3.515   4.992  0.00  0.00    -0.042 I 
ATOM     14  C   UNL d   1      16.220  -2.879   7.898  0.00  0.00     0.082 A 
ATOM     15  C   UNL d   1      15.999  -3.167   9.244  0.00  0.00     0.040 A 
ATOM     16  C   UNL d   1      16.151  -4.473   9.711  0.00  0.00     0.040 A 
BRANCH  14  17
ATOM     17  O   UNL d   1      16.060  -1.590   7.481  0.00  0.00    -0.359 OA
ATOM     18  H   UNL d   1      16.435  -1.493   6.589  0.00  0.00     0.217 HD
ENDBRANCH  14  17
ENDBRANCH   9  10
ENDBRANCH   6   9
BRANCH   3  19
ATOM     19  C   UNL d   1      17.603  -7.462  14.815  0.00  0.00     0.085 C 
BRANCH  19  20
ATOM     20  CA  UNL d   1      19.097  -7.537  15.165  0.00  0.00     0.318 C 
BRANCH  20  21
ATOM     21  N   UNL d   1      19.392  -8.818  15.802  0.00  0.00     0.093 N 
ATOM     22  H1  UNL d   1      18.901  -8.878  16.693  0.00  0.00     0.314 HD
ATOM     23  H2  UNL d   1      20.385  -8.871  16.029  0.00  0.00     0.314 HD
ENDBRANCH  20  21
BRANCH  20  24
ATOM     24  C   UNL d   1      19.509  -6.456  16.148  0.00  0.00     0.174 C 
ATOM     25  OXT UNL d   1      20.013  -6.663  17.245  0.00  0.00    -0.648 OA
BRANCH  24  26
ATOM     26  O   UNL d   1      19.290  -5.206  15.664  0.00  0.00    -0.775 OA
ATOM     27  H   UNL d   1      18.473  -5.162  15.123  0.00  0.00     0.167 HD
ENDBRANCH  24  26
ENDBRANCH  20  24
ENDBRANCH  19  20
ENDBRANCH   3  19
TORSDOF 8
ENDMDL
MODEL 6
REMARK VINA RESULT:      -1.2      3.194      5.109
REMARK  8 active torsions:
REMARK  status: ('A' for Active; 'I' for Inactive)
REMARK    1  A    between atoms: O_4  and  C_14 
REMARK    2  A    between atoms: O_4  and  C_18 
REMARK    3  A    between atoms: O_5  and  C_17 
REMARK    4  A    between atoms: O_7  and  C_23 
REMARK    5  A    between atoms: N_8  and  CA_10 
REMARK    6  A    between atoms: C_9  and  CA_10 
REMARK    7  A    between atoms: C_9  and  C_11 
REMARK    8  A    between atoms: CA_10  and  C_17 
ROOT
ATOM      1  I   UNL d   1      13.706  -3.355  12.551  0.00  0.00    -0.042 I 
ATOM      2  I   UNL d   1      18.599  -1.066  15.391  0.00  0.00    -0.042 I 
ATOM      3  C   UNL d   1      16.877  -5.010  14.977  0.00  0.00    -0.053 A 
ATOM      4  C   UNL d   1      17.685  -3.937  15.317  0.00  0.00     0.028 A 
ATOM      5  C   UNL d   1      15.748  -4.843  14.192  0.00  0.00     0.028 A 
ATOM      6  C   UNL d   1      16.220  -2.477  14.067  0.00  0.00     0.109 A 
ATOM      7  C   UNL d   1      15.418  -3.568  13.735  0.00  0.00     0.042 A 
ATOM      8  C   UNL d   1      17.354  -2.662  14.859  0.00  0.00     0.042 A 
ENDROOT
BRANCH   6   9
ATOM      9  O   UNL d   1      15.897  -1.228  13.618  0.00  0.00    -0.308 OA
BRANCH   9  10
ATOM     10  C   UNL d   1      14.954  -0.516  14.335  0.00  0.00     0.077 A 
ATOM     11  C   UNL d   1      14.640  -0.914  15.623  0.00  0.00     0.058 A 
ATOM     12  C   UNL d   1      13.689  -0.195  16.346  0.00  0.00     0.042 A 
ATOM     13  I   UNL d   1      13.231  -0.817  18.288  0.00  0.00    -0.042 I 
ATOM     14  C   UNL d   1      13.065   0.912  15.769  0.00  0.00     0.082 A 
ATOM     15  C   UNL d   1      13.394   1.300  14.470  0.00  0.00     0.040 A 
ATOM     16  C   UNL d   1      14.346   0.580  13.748  0.00  0.00     0.040 A 
BRANCH  14  17
ATOM     17  O   UNL d   1      12.130   1.642  16.441  0.00  0.00    -0.359 OA
ATOM     18  H   UNL d   1      12.281   1.554  17.398  0.00  0.00     0.217 HD
ENDBRANCH  14  17
ENDBRANCH   9  10
ENDBRANCH   6   9
BRANCH   3  19
ATOM     19  C   UNL d   1      17.235  -6.391  15.473  0.00  0.00     0.085 C 
BRANCH  19  20
ATOM     20  CA  UNL d   1      18.634  -6.843  15.025  0.00  0.00     0.318 C 
BRANCH  20  21
ATOM     21  N   UNL d   1      18.519  -7.987  14.124  0.00  0.00     0.093 N 
ATOM     22  H1  UNL d   1      18.855  -8.827  14.593  0.00  0.00     0.314 HD
ATOM     23  H2  UNL d   1      19.131  -7.856  13.319  0.00  0.00     0.314 HD
ENDBRANCH  20  21
BRANCH  20  24
ATOM     24  C   UNL d   1      19.491  -7.294  16.195  0.00  0.00     0.174 C 
ATOM     25  OXT UNL d   1      19.616  -6.682  17.248  0.00  0.00    -0.648 OA
BRANCH  24  26
ATOM     26  O   UNL d   1      20.090  -8.492  15.965  0.00  0.00    -0.775 OA
ATOM     27  H   UNL d   1      20.807  -8.671  16.610  0.00  0.00     0.167 HD
ENDBRANCH  24  26
ENDBRANCH  20  24
ENDBRANCH  19  20
ENDBRANCH   3  19
TORSDOF 8
ENDMDL
MODEL 7
REMARK VINA RESULT:      -1.1      4.573      6.906
REMARK  8 active torsions:
REMARK  status: ('A' for Active; 'I' for Inactive)
REMARK    1  A    between atoms: O_4  and  C_14 
REMARK    2  A    between atoms: O_4  and  C_18 
REMARK    3  A    between atoms: O_5  and  C_17 
REMARK    4  A    between atoms: O_7  and  C_23 
REMARK    5  A    between atoms: N_8  and  CA_10 
REMARK    6  A    between atoms: C_9  and  CA_10 
REMARK    7  A    between atoms: C_9  and  C_11 
REMARK    8  A    between atoms: CA_10  and  C_17 
ROOT
ATOM      1  I   UNL d   1      13.708  -5.700  13.349  0.00  0.00    -0.042 I 
ATOM      2  I   UNL d   1      14.201  -7.481  19.166  0.00  0.00    -0.042 I 
ATOM      3  C   UNL d   1      16.991  -6.807  15.933  0.00  0.00    -0.053 A 
ATOM      4  C   UNL d   1      16.416  -7.112  17.157  0.00  0.00     0.028 A 
ATOM      5  C   UNL d   1      16.221  -6.407  14.854  0.00  0.00     0.028 A 
ATOM      6  C   UNL d   1      14.243  -6.612  16.226  0.00  0.00     0.109 A 
ATOM      7  C   UNL d   1      14.838  -6.309  15.001  0.00  0.00     0.042 A 
ATOM      8  C   UNL d   1      15.033  -7.013  17.303  0.00  0.00     0.042 A 
ENDROOT
BRANCH   6   9
ATOM      9  O   UNL d   1      12.888  -6.515  16.370  0.00  0.00    -0.308 OA
BRANCH   9  10
ATOM     10  C   UNL d   1      12.361  -5.261  16.618  0.00  0.00     0.077 A 
ATOM     11  C   UNL d   1      13.181  -4.271  17.130  0.00  0.00     0.058 A 
ATOM     12  C   UNL d   1      12.648  -3.007  17.379  0.00  0.00     0.042 A 
ATOM     13  I   UNL d   1      13.905  -1.528  18.154  0.00  0.00    -0.042 I 
ATOM     14  C   UNL d   1      11.302  -2.752  17.112  0.00  0.00     0.082 A 
ATOM     15  C   UNL d   1      10.490  -3.761  16.595  0.00  0.00     0.040 A 
ATOM     16  C   UNL d   1      11.024  -5.026  16.346  0.00  0.00     0.040 A 
BRANCH  14  17
ATOM     17  O   UNL d   1      10.742  -1.530  17.341  0.00  0.00    -0.359 OA
ATOM     18  H   UNL d   1      11.131  -0.879  16.732  0.00  0.00     0.217 HD
ENDBRANCH  14  17
ENDBRANCH   9  10
ENDBRANCH   6   9
BRANCH   3  19
ATOM     19  C   UNL d   1      18.490  -6.913  15.774  0.00  0.00     0.085 C 
BRANCH  19  20
ATOM     20  CA  UNL d   1      19.012  -6.180  14.529  0.00  0.00     0.318 C 
BRANCH  20  21
ATOM     21  N   UNL d   1      19.934  -7.046  13.796  0.00  0.00     0.093 N 
ATOM     22  H1  UNL d   1      19.609  -7.158  12.837  0.00  0.00     0.314 HD
ATOM     23  H2  UNL d   1      19.927  -7.981  14.203  0.00  0.00     0.314 HD
ENDBRANCH  20  21
BRANCH  20  24
ATOM     24  C   UNL d   1      19.786  -4.924  14.887  0.00  0.00     0.174 C 
ATOM     25  OXT UNL d   1      20.090  -4.040  14.097  0.00  0.00    -0.648 OA
BRANCH  24  26
ATOM     26  O   UNL d   1      20.085  -4.862  16.211  0.00  0.00    -0.775 OA
ATOM     27  H   UNL d   1      19.291  -4.672  16.756  0.00  0.00     0.167 HD
ENDBRANCH  24  26
ENDBRANCH  20  24
ENDBRANCH  19  20
ENDBRANCH   3  19
TORSDOF 8
ENDMDL
MODEL 8
REMARK VINA RESULT:      -1.0      2.333      2.650
REMARK  8 active torsions:
REMARK  status: ('A' for Active; 'I' for Inactive)
REMARK    1  A    between atoms: O_4  and  C_14 
REMARK    2  A    between atoms: O_4  and  C_18 
REMARK    3  A    between atoms: O_5  and  C_17 
REMARK    4  A    between atoms: O_7  and  C_23 
REMARK    5  A    between atoms: N_8  and  CA_10 
REMARK    6  A    between atoms: C_9  and  CA_10 
REMARK    7  A    between atoms: C_9  and  C_11 
REMARK    8  A    between atoms: CA_10  and  C_17 
ROOT
ATOM      1  I   UNL d   1      13.145  -3.103  12.202  0.00  0.00    -0.042 I 
ATOM      2  I   UNL d   1      17.595  -1.409  16.019  0.00  0.00    -0.042 I 
ATOM      3  C   UNL d   1      14.571  -4.499  16.035  0.00  0.00    -0.053 A 
ATOM      4  C   UNL d   1      15.629  -3.667  16.365  0.00  0.00     0.028 A 
ATOM      5  C   UNL d   1      13.867  -4.338  14.853  0.00  0.00     0.028 A 
ATOM      6  C   UNL d   1      15.293  -2.469  14.294  0.00  0.00     0.109 A 
ATOM      7  C   UNL d   1      14.231  -3.315  13.977  0.00  0.00     0.042 A 
ATOM      8  C   UNL d   1      15.992  -2.645  15.488  0.00  0.00     0.042 A 
ENDROOT
BRANCH   6   9
ATOM      9  O   UNL d   1      15.649  -1.468  13.435  0.00  0.00    -0.308 OA
BRANCH   9  10
ATOM     10  C   UNL d   1      16.480  -1.798  12.380  0.00  0.00     0.077 A 
ATOM     11  C   UNL d   1      17.215  -2.969  12.438  0.00  0.00     0.058 A 
ATOM     12  C   UNL d   1      18.052  -3.301  11.373  0.00  0.00     0.042 A 
ATOM     13  I   UNL d   1      19.153  -5.074  11.485  0.00  0.00    -0.042 I 
ATOM     14  C   UNL d   1      18.142  -2.456  10.267  0.00  0.00     0.082 A 
ATOM     15  C   UNL d   1      17.393  -1.280  10.225  0.00  0.00     0.040 A 
ATOM     16  C   UNL d   1      16.556  -0.949  11.290  0.00  0.00     0.040 A 
BRANCH  14  17
ATOM     17  O   UNL d   1      18.948  -2.744   9.205  0.00  0.00    -0.359 OA
ATOM     18  H   UNL d   1      19.079  -3.706   9.153  0.00  0.00     0.217 HD
ENDBRANCH  14  17
ENDBRANCH   9  10
ENDBRANCH   6   9
BRANCH   3  19
ATOM     19  C   UNL d   1      14.179  -5.607  16.985  0.00  0.00     0.085 C 
BRANCH  19  20
ATOM     20  CA  UNL d   1      15.030  -6.874  16.811  0.00  0.00     0.318 C 
BRANCH  20  21
ATOM     21  N   UNL d   1      14.182  -7.986  16.389  0.00  0.00     0.093 N 
ATOM     22  H1  UNL d   1      14.092  -8.656  17.151  0.00  0.00     0.314 HD
ATOM     23  H2  UNL d   1      14.631  -8.493  15.626  0.00  0.00     0.314 HD
ENDBRANCH  20  21
BRANCH  20  24
ATOM     24  C   UNL d   1      15.693  -7.299  18.109  0.00  0.00     0.174 C 
ATOM     25  OXT UNL d   1      16.591  -8.127  18.197  0.00  0.00    -0.648 OA
BRANCH  24  26
ATOM     26  O   UNL d   1      15.203  -6.628  19.184  0.00  0.00    -0.775 OA
ATOM     27  H   UNL d   1      15.462  -7.054  20.028  0.00  0.00     0.167 HD
ENDBRANCH  24  26
ENDBRANCH  20  24
ENDBRANCH  19  20
ENDBRANCH   3  19
TORSDOF 8
ENDMDL
MODEL 9
REMARK VINA RESULT:      -1.0      6.026      8.589
REMARK  8 active torsions:
REMARK  status: ('A' for Active; 'I' for Inactive)
REMARK    1  A    between atoms: O_4  and  C_14 
REMARK    2  A    between atoms: O_4  and  C_18 
REMARK    3  A    between atoms: O_5  and  C_17 
REMARK    4  A    between atoms: O_7  and  C_23 
REMARK    5  A    between atoms: N_8  and  CA_10 
REMARK    6  A    between atoms: C_9  and  CA_10 
REMARK    7  A    between atoms: C_9  and  C_11 
REMARK    8  A    between atoms: CA_10  and  C_17 
ROOT
ATOM      1  I   UNL d   1      14.365  -3.068   4.897  0.00  0.00    -0.042 I 
ATOM      2  I   UNL d   1      19.898  -0.576   4.244  0.00  0.00    -0.042 I 
ATOM      3  C   UNL d   1      16.995  -0.769   7.442  0.00  0.00    -0.053 A 
ATOM      4  C   UNL d   1      18.121  -0.509   6.677  0.00  0.00     0.028 A 
ATOM      5  C   UNL d   1      15.931  -1.496   6.935  0.00  0.00     0.028 A 
ATOM      6  C   UNL d   1      17.118  -1.721   4.844  0.00  0.00     0.109 A 
ATOM      7  C   UNL d   1      15.992  -1.975   5.627  0.00  0.00     0.042 A 
ATOM      8  C   UNL d   1      18.182  -0.988   5.369  0.00  0.00     0.042 A 
ENDROOT
BRANCH   6   9
ATOM      9  O   UNL d   1      17.179  -2.192   3.562  0.00  0.00    -0.308 OA
BRANCH   9  10
ATOM     10  C   UNL d   1      17.907  -3.346   3.340  0.00  0.00     0.077 A 
ATOM     11  C   UNL d   1      18.114  -4.228   4.386  0.00  0.00     0.058 A 
ATOM     12  C   UNL d   1      18.848  -5.392   4.160  0.00  0.00     0.042 A 
ATOM     13  I   UNL d   1      19.147  -6.708   5.756  0.00  0.00    -0.042 I 
ATOM     14  C   UNL d   1      19.365  -5.655   2.891  0.00  0.00     0.082 A 
ATOM     15  C   UNL d   1      19.147  -4.756   1.849  0.00  0.00     0.040 A 
ATOM     16  C   UNL d   1      18.412  -3.592   2.075  0.00  0.00     0.040 A 
BRANCH  14  17
ATOM     17  O   UNL d   1      20.088  -6.781   2.629  0.00  0.00    -0.359 OA
ATOM     18  H   UNL d   1      21.036  -6.568   2.660  0.00  0.00     0.217 HD
ENDBRANCH  14  17
ENDBRANCH   9  10
ENDBRANCH   6   9
BRANCH   3  19
ATOM     19  C   UNL d   1      16.929  -0.250   8.859  0.00  0.00     0.085 C 
BRANCH  19  20
ATOM     20  CA  UNL d   1      17.125  -1.354   9.910  0.00  0.00     0.318 C 
BRANCH  20  21
ATOM     21  N   UNL d   1      16.624  -0.899  11.205  0.00  0.00     0.093 N 
ATOM     22  H1  UNL d   1      17.130  -0.062  11.492  0.00  0.00     0.314 HD
ATOM     23  H2  UNL d   1      16.822  -1.601  11.918  0.00  0.00     0.314 HD
ENDBRANCH  20  21
BRANCH  20  24
ATOM     24  C   UNL d   1      18.590  -1.701  10.107  0.00  0.00     0.174 C 
ATOM     25  OXT UNL d   1      19.489  -0.884  10.259  0.00  0.00    -0.648 OA
BRANCH  24  26
ATOM     26  O   UNL d   1      18.804  -3.043  10.135  0.00  0.00    -0.775 OA
ATOM     27  H   UNL d   1      19.600  -3.274  10.659  0.00  0.00     0.167 HD
ENDBRANCH  24  26
ENDBRANCH  20  24
ENDBRANCH  19  20
ENDBRANCH   3  19
TORSDOF 8
ENDMDL
