MODEL 1
REMARK VINA RESULT:      -1.6      0.000      0.000
REMARK  6 active torsions:
REMARK  status: ('A' for Active; 'I' for Inactive)
REMARK    1  A    between atoms: N_8  and  C_18 
REMARK    2  A    between atoms: N_9  and  N_11 
REMARK       I    between atoms: N_9  and  C_22 
REMARK    3  A    between atoms: N_10  and  C_25 
REMARK       I    between atoms: N_11  and  C_27 
REMARK    4  A    between atoms: N_12  and  C_26 
REMARK       I    between atoms: N_12  and  C_27 
REMARK    5  A    between atoms: C_19  and  C_22 
REMARK    6  A    between atoms: C_28  and  C_33 
ROOT
ATOM      1  O   UNL d   1      12.665  -7.239  10.620  0.00  0.00    -0.267 OA
ATOM      2  N   UNL d   1      13.689  -9.237  11.212  0.00  0.00    -0.263 N 
ATOM      3  C   UNL d   1      13.177  -8.314  10.323  0.00  0.00     0.260 C 
ATOM      4  H   UNL d   1      14.110 -10.120  10.941  0.00  0.00     0.190 HD
ENDROOT
BRANCH   2   5
ATOM      5  N   UNL d   1      13.640  -8.962  12.556  0.00  0.00    -0.248 N 
ATOM      6  C   UNL d   1      14.806  -9.065  13.315  0.00  0.00     0.339 C 
ATOM      7  O   UNL d   1      15.891  -9.392  12.840  0.00  0.00    -0.245 OA
ATOM      8  N   UNL d   1      14.543  -8.744  14.649  0.00  0.00    -0.308 N 
ATOM      9  H   UNL d   1      13.584  -8.491  14.875  0.00  0.00     0.170 HD
ATOM     10  H   UNL d   1      12.744  -8.687  12.940  0.00  0.00     0.192 HD
BRANCH   8  11
ATOM     11  C   UNL d   1      15.451  -8.725  15.734  0.00  0.00     0.037 A 
ATOM     12  C   UNL d   1      16.658  -8.036  15.623  0.00  0.00     0.045 A 
ATOM     13  C   UNL d   1      17.551  -8.018  16.694  0.00  0.00     0.050 A 
ATOM     14  C   UNL d   1      17.238  -8.690  17.875  0.00  0.00     0.016 A 
ATOM     15  C   UNL d   1      16.031  -9.379  17.987  0.00  0.00     0.003 A 
ATOM     16  C   UNL d   1      15.137  -9.397  16.916  0.00  0.00     0.029 A 
BRANCH  13  17
ATOM     17  C   UNL d   1      18.843  -7.281  16.575  0.00  0.00     0.417 C 
ATOM     18  F   UNL d   1      19.766  -7.917  15.794  0.00  0.00    -0.166 F 
ATOM     19  F   UNL d   1      19.469  -7.078  17.772  0.00  0.00    -0.166 F 
ATOM     20  F   UNL d   1      18.691  -6.040  16.027  0.00  0.00    -0.166 F 
ENDBRANCH  13  17
ENDBRANCH   8  11
ENDBRANCH   2   5
BRANCH   3  21
ATOM     21  C   UNL d   1      13.316  -8.777   8.920  0.00  0.00     0.078 C 
ATOM     22  C   UNL d   1      14.475  -8.614   8.266  0.00  0.00    -0.071 C 
ATOM     23  C   UNL d   1      14.684  -9.060   6.845  0.00  0.00     0.054 C 
ATOM     24  C   UNL d   1      15.676  -7.951   8.879  0.00  0.00     0.054 C 
ATOM     25  C   UNL d   1      15.176  -7.895   5.984  0.00  0.00     0.127 C 
ATOM     26  N   UNL d   1      16.338  -7.239   6.607  0.00  0.00    -0.380 N 
ATOM     27  C   UNL d   1      16.168  -6.798   8.000  0.00  0.00     0.127 C 
BRANCH  26  28
ATOM     28  C   UNL d   1      17.212  -6.541   5.766  0.00  0.00     0.030 A 
ATOM     29  C   UNL d   1      16.726  -5.925   4.612  0.00  0.00     0.032 A 
ATOM     30  C   UNL d   1      17.596  -5.228   3.774  0.00  0.00     0.038 A 
ATOM     31  C   UNL d   1      18.953  -5.149   4.088  0.00  0.00     0.103 A 
ATOM     32  C   UNL d   1      19.439  -5.765   5.241  0.00  0.00     0.038 A 
ATOM     33  C   UNL d   1      18.568  -6.461   6.080  0.00  0.00     0.032 A 
BRANCH  31  34
ATOM     34  N   UNL d   1      19.840  -4.441   3.234  0.00  0.00    -0.116 N 
ATOM     35  O   UNL d   1      20.592  -5.089   2.467  0.00  0.00    -0.532 OA
ATOM     36  O   UNL d   1      19.847  -3.186   3.270  0.00  0.00    -0.532 OA
ENDBRANCH  31  34
ENDBRANCH  26  28
ENDBRANCH   3  21
TORSDOF 6
ENDMDL
MODEL 2
REMARK VINA RESULT:      -1.6      7.216     12.043
REMARK  6 active torsions:
REMARK  status: ('A' for Active; 'I' for Inactive)
REMARK    1  A    between atoms: N_8  and  C_18 
REMARK    2  A    between atoms: N_9  and  N_11 
REMARK       I    between atoms: N_9  and  C_22 
REMARK    3  A    between atoms: N_10  and  C_25 
REMARK       I    between atoms: N_11  and  C_27 
REMARK    4  A    between atoms: N_12  and  C_26 
REMARK       I    between atoms: N_12  and  C_27 
REMARK    5  A    between atoms: C_19  and  C_22 
REMARK    6  A    between atoms: C_28  and  C_33 
ROOT
ATOM      1  O   UNL d   1      14.725  -5.010   6.918  0.00  0.00    -0.267 OA
ATOM      2  N   UNL d   1      16.430  -5.414   5.394  0.00  0.00    -0.263 N 
ATOM      3  C   UNL d   1      15.822  -4.745   6.437  0.00  0.00     0.260 C 
ATOM      4  H   UNL d   1      17.341  -5.177   5.015  0.00  0.00     0.190 HD
ENDROOT
BRANCH   2   5
ATOM      5  N   UNL d   1      15.779  -6.477   4.819  0.00  0.00    -0.248 N 
ATOM      6  C   UNL d   1      15.187  -6.316   3.566  0.00  0.00     0.339 C 
ATOM      7  O   UNL d   1      15.217  -5.260   2.938  0.00  0.00    -0.245 OA
ATOM      8  N   UNL d   1      14.582  -7.508   3.161  0.00  0.00    -0.308 N 
ATOM      9  H   UNL d   1      14.651  -8.294   3.804  0.00  0.00     0.170 HD
ATOM     10  H   UNL d   1      15.762  -7.347   5.339  0.00  0.00     0.192 HD
BRANCH   8  11
ATOM     11  C   UNL d   1      13.879  -7.763   1.960  0.00  0.00     0.037 A 
ATOM     12  C   UNL d   1      12.506  -7.532   1.893  0.00  0.00     0.045 A 
ATOM     13  C   UNL d   1      11.814  -7.783   0.708  0.00  0.00     0.050 A 
ATOM     14  C   UNL d   1      12.495  -8.265  -0.409  0.00  0.00     0.016 A 
ATOM     15  C   UNL d   1      13.869  -8.495  -0.342  0.00  0.00     0.003 A 
ATOM     16  C   UNL d   1      14.561  -8.244   0.842  0.00  0.00     0.029 A 
BRANCH  13  17
ATOM     17  C   UNL d   1      10.344  -7.536   0.636  0.00  0.00     0.417 C 
ATOM     18  F   UNL d   1       9.597  -8.680   0.618  0.00  0.00    -0.166 F 
ATOM     19  F   UNL d   1       9.960  -6.843  -0.477  0.00  0.00    -0.166 F 
ATOM     20  F   UNL d   1       9.881  -6.812   1.696  0.00  0.00    -0.166 F 
ENDBRANCH  13  17
ENDBRANCH   8  11
ENDBRANCH   2   5
BRANCH   3  21
ATOM     21  C   UNL d   1      16.669  -3.630   6.933  0.00  0.00     0.078 C 
ATOM     22  C   UNL d   1      17.597  -3.853   7.874  0.00  0.00    -0.071 C 
ATOM     23  C   UNL d   1      18.487  -2.772   8.420  0.00  0.00     0.054 C 
ATOM     24  C   UNL d   1      17.828  -5.202   8.494  0.00  0.00     0.054 C 
ATOM     25  C   UNL d   1      18.382  -2.708   9.945  0.00  0.00     0.127 C 
ATOM     26  N   UNL d   1      18.587  -4.041  10.539  0.00  0.00    -0.380 N 
ATOM     27  C   UNL d   1      17.736  -5.122  10.020  0.00  0.00     0.127 C 
BRANCH  26  28
ATOM     28  C   UNL d   1      19.038  -4.093  11.862  0.00  0.00     0.030 A 
ATOM     29  C   UNL d   1      19.332  -2.914  12.547  0.00  0.00     0.032 A 
ATOM     30  C   UNL d   1      19.781  -2.965  13.866  0.00  0.00     0.038 A 
ATOM     31  C   UNL d   1      19.937  -4.198  14.501  0.00  0.00     0.103 A 
ATOM     32  C   UNL d   1      19.644  -5.377  13.817  0.00  0.00     0.038 A 
ATOM     33  C   UNL d   1      19.194  -5.325  12.498  0.00  0.00     0.032 A 
BRANCH  31  34
ATOM     34  N   UNL d   1      20.396  -4.252  15.844  0.00  0.00    -0.116 N 
ATOM     35  O   UNL d   1      20.593  -3.179  16.463  0.00  0.00    -0.532 OA
ATOM     36  O   UNL d   1      20.593  -5.372  16.375  0.00  0.00    -0.532 OA
ENDBRANCH  31  34
ENDBRANCH  26  28
ENDBRANCH   3  21
TORSDOF 6
ENDMDL
MODEL 3
REMARK VINA RESULT:      -1.6      5.247      6.436
REMARK  6 active torsions:
REMARK  status: ('A' for Active; 'I' for Inactive)
REMARK    1  A    between atoms: N_8  and  C_18 
REMARK    2  A    between atoms: N_9  and  N_11 
REMARK       I    between atoms: N_9  and  C_22 
REMARK    3  A    between atoms: N_10  and  C_25 
REMARK       I    between atoms: N_11  and  C_27 
REMARK    4  A    between atoms: N_12  and  C_26 
REMARK       I    between atoms: N_12  and  C_27 
REMARK    5  A    between atoms: C_19  and  C_22 
REMARK    6  A    between atoms: C_28  and  C_33 
ROOT
ATOM      1  O   UNL d   1      14.804  -3.849  11.471  0.00  0.00    -0.267 OA
ATOM      2  N   UNL d   1      14.835  -4.564  13.680  0.00  0.00    -0.263 N 
ATOM      3  C   UNL d   1      14.637  -4.717  12.323  0.00  0.00     0.260 C 
ATOM      4  H   UNL d   1      14.692  -5.299  14.365  0.00  0.00     0.190 HD
ENDROOT
BRANCH   2   5
ATOM      5  N   UNL d   1      15.258  -3.348  14.157  0.00  0.00    -0.248 N 
ATOM      6  C   UNL d   1      16.481  -3.265  14.821  0.00  0.00     0.339 C 
ATOM      7  O   UNL d   1      17.214  -4.234  15.006  0.00  0.00    -0.245 OA
ATOM      8  N   UNL d   1      16.725  -1.948  15.221  0.00  0.00    -0.308 N 
ATOM      9  H   UNL d   1      16.011  -1.263  14.986  0.00  0.00     0.170 HD
ATOM     10  H   UNL d   1      14.652  -2.552  13.996  0.00  0.00     0.192 HD
BRANCH   8  11
ATOM     11  C   UNL d   1      17.848  -1.445  15.918  0.00  0.00     0.037 A 
ATOM     12  C   UNL d   1      17.750  -1.145  17.276  0.00  0.00     0.045 A 
ATOM     13  C   UNL d   1      18.858  -0.649  17.963  0.00  0.00     0.050 A 
ATOM     14  C   UNL d   1      20.064  -0.453  17.291  0.00  0.00     0.016 A 
ATOM     15  C   UNL d   1      20.163  -0.754  15.933  0.00  0.00     0.003 A 
ATOM     16  C   UNL d   1      19.055  -1.250  15.246  0.00  0.00     0.029 A 
BRANCH  13  17
ATOM     17  C   UNL d   1      18.752  -0.328  19.416  0.00  0.00     0.417 C 
ATOM     18  F   UNL d   1      17.464  -0.237  19.864  0.00  0.00    -0.166 F 
ATOM     19  F   UNL d   1      19.331   0.862  19.756  0.00  0.00    -0.166 F 
ATOM     20  F   UNL d   1      19.351  -1.265  20.206  0.00  0.00    -0.166 F 
ENDBRANCH  13  17
ENDBRANCH   8  11
ENDBRANCH   2   5
BRANCH   3  21
ATOM     21  C   UNL d   1      14.184  -6.091  11.992  0.00  0.00     0.078 C 
ATOM     22  C   UNL d   1      15.074  -7.032  11.645  0.00  0.00    -0.071 C 
ATOM     23  C   UNL d   1      14.685  -8.442  11.298  0.00  0.00     0.054 C 
ATOM     24  C   UNL d   1      16.550  -6.767  11.547  0.00  0.00     0.054 C 
ATOM     25  C   UNL d   1      15.228  -8.826   9.921  0.00  0.00     0.127 C 
ATOM     26  N   UNL d   1      16.671  -8.539   9.830  0.00  0.00    -0.380 N 
ATOM     27  C   UNL d   1      17.085  -7.170  10.171  0.00  0.00     0.127 C 
BRANCH  26  28
ATOM     28  C   UNL d   1      17.416  -9.273   8.900  0.00  0.00     0.030 A 
ATOM     29  C   UNL d   1      17.744 -10.604   9.164  0.00  0.00     0.032 A 
ATOM     30  C   UNL d   1      18.486 -11.336   8.239  0.00  0.00     0.038 A 
ATOM     31  C   UNL d   1      18.901 -10.738   7.048  0.00  0.00     0.103 A 
ATOM     32  C   UNL d   1      18.574  -9.408   6.784  0.00  0.00     0.038 A 
ATOM     33  C   UNL d   1      17.831  -8.676   7.710  0.00  0.00     0.032 A 
BRANCH  31  34
ATOM     34  N   UNL d   1      19.658 -11.483   6.105  0.00  0.00    -0.116 N 
ATOM     35  O   UNL d   1      19.879 -12.698   6.326  0.00  0.00    -0.532 OA
ATOM     36  O   UNL d   1      20.087 -10.905   5.077  0.00  0.00    -0.532 OA
ENDBRANCH  31  34
ENDBRANCH  26  28
ENDBRANCH   3  21
TORSDOF 6
ENDMDL
MODEL 4
REMARK VINA RESULT:      -1.5      4.034      4.818
REMARK  6 active torsions:
REMARK  status: ('A' for Active; 'I' for Inactive)
REMARK    1  A    between atoms: N_8  and  C_18 
REMARK    2  A    between atoms: N_9  and  N_11 
REMARK       I    between atoms: N_9  and  C_22 
REMARK    3  A    between atoms: N_10  and  C_25 
REMARK       I    between atoms: N_11  and  C_27 
REMARK    4  A    between atoms: N_12  and  C_26 
REMARK       I    between atoms: N_12  and  C_27 
REMARK    5  A    between atoms: C_19  and  C_22 
REMARK    6  A    between atoms: C_28  and  C_33 
ROOT
ATOM      1  O   UNL d   1      13.506  -3.075  10.281  0.00  0.00    -0.267 OA
ATOM      2  N   UNL d   1      14.772  -4.995  10.606  0.00  0.00    -0.263 N 
ATOM      3  C   UNL d   1      13.889  -4.185   9.922  0.00  0.00     0.260 C 
ATOM      4  H   UNL d   1      15.075  -5.909  10.286  0.00  0.00     0.190 HD
ENDROOT
BRANCH   2   5
ATOM      5  N   UNL d   1      15.291  -4.553  11.798  0.00  0.00    -0.248 N 
ATOM      6  C   UNL d   1      16.513  -5.061  12.238  0.00  0.00     0.339 C 
ATOM      7  O   UNL d   1      17.162  -5.895  11.609  0.00  0.00    -0.245 OA
ATOM      8  N   UNL d   1      16.862  -4.485  13.463  0.00  0.00    -0.308 N 
ATOM      9  H   UNL d   1      16.209  -3.807  13.848  0.00  0.00     0.170 HD
ATOM     10  H   UNL d   1      14.755  -3.862  12.308  0.00  0.00     0.192 HD
BRANCH   8  11
ATOM     11  C   UNL d   1      18.018  -4.729  14.240  0.00  0.00     0.037 A 
ATOM     12  C   UNL d   1      18.120  -5.899  14.992  0.00  0.00     0.045 A 
ATOM     13  C   UNL d   1      19.261  -6.138  15.758  0.00  0.00     0.050 A 
ATOM     14  C   UNL d   1      20.300  -5.208  15.772  0.00  0.00     0.016 A 
ATOM     15  C   UNL d   1      20.199  -4.038  15.019  0.00  0.00     0.003 A 
ATOM     16  C   UNL d   1      19.058  -3.799  14.253  0.00  0.00     0.029 A 
BRANCH  13  17
ATOM     17  C   UNL d   1      19.369  -7.390  16.563  0.00  0.00     0.417 C 
ATOM     18  F   UNL d   1      18.455  -8.344  16.217  0.00  0.00    -0.166 F 
ATOM     19  F   UNL d   1      19.189  -7.195  17.903  0.00  0.00    -0.166 F 
ATOM     20  F   UNL d   1      20.589  -7.989  16.441  0.00  0.00    -0.166 F 
ENDBRANCH  13  17
ENDBRANCH   8  11
ENDBRANCH   2   5
BRANCH   3  21
ATOM     21  C   UNL d   1      13.434  -4.822   8.660  0.00  0.00     0.078 C 
ATOM     22  C   UNL d   1      14.105  -4.614   7.518  0.00  0.00    -0.071 C 
ATOM     23  C   UNL d   1      13.700  -5.227   6.207  0.00  0.00     0.054 C 
ATOM     24  C   UNL d   1      15.317  -3.731   7.429  0.00  0.00     0.054 C 
ATOM     25  C   UNL d   1      13.521  -4.145   5.140  0.00  0.00     0.127 C 
ATOM     26  N   UNL d   1      14.707  -3.272   5.078  0.00  0.00    -0.380 N 
ATOM     27  C   UNL d   1      15.133  -2.663   6.347  0.00  0.00     0.127 C 
BRANCH  26  28
ATOM     28  C   UNL d   1      14.950  -2.600   3.875  0.00  0.00     0.030 A 
ATOM     29  C   UNL d   1      14.505  -3.144   2.670  0.00  0.00     0.032 A 
ATOM     30  C   UNL d   1      14.746  -2.475   1.471  0.00  0.00     0.038 A 
ATOM     31  C   UNL d   1      15.434  -1.260   1.477  0.00  0.00     0.103 A 
ATOM     32  C   UNL d   1      15.879  -0.717   2.681  0.00  0.00     0.038 A 
ATOM     33  C   UNL d   1      15.637  -1.386   3.881  0.00  0.00     0.032 A 
BRANCH  31  34
ATOM     34  N   UNL d   1      15.681  -0.578   0.256  0.00  0.00    -0.116 N 
ATOM     35  O   UNL d   1      16.610   0.263   0.207  0.00  0.00    -0.532 OA
ATOM     36  O   UNL d   1      14.963  -0.835  -0.741  0.00  0.00    -0.532 OA
ENDBRANCH  31  34
ENDBRANCH  26  28
ENDBRANCH   3  21
TORSDOF 6
ENDMDL
MODEL 5
REMARK VINA RESULT:      -1.5      4.098      4.628
REMARK  6 active torsions:
REMARK  status: ('A' for Active; 'I' for Inactive)
REMARK    1  A    between atoms: N_8  and  C_18 
REMARK    2  A    between atoms: N_9  and  N_11 
REMARK       I    between atoms: N_9  and  C_22 
REMARK    3  A    between atoms: N_10  and  C_25 
REMARK       I    between atoms: N_11  and  C_27 
REMARK    4  A    between atoms: N_12  and  C_26 
REMARK       I    between atoms: N_12  and  C_27 
REMARK    5  A    between atoms: C_19  and  C_22 
REMARK    6  A    between atoms: C_28  and  C_33 
ROOT
ATOM      1  O   UNL d   1      11.269  -6.874  12.931  0.00  0.00    -0.267 OA
ATOM      2  N   UNL d   1      12.281  -5.232  14.225  0.00  0.00    -0.263 N 
ATOM      3  C   UNL d   1      11.650  -5.720  13.098  0.00  0.00     0.260 C 
ATOM      4  H   UNL d   1      12.584  -4.271  14.340  0.00  0.00     0.190 HD
ENDROOT
BRANCH   2   5
ATOM      5  N   UNL d   1      12.519  -6.086  15.273  0.00  0.00    -0.248 N 
ATOM      6  C   UNL d   1      13.827  -6.489  15.540  0.00  0.00     0.339 C 
ATOM      7  O   UNL d   1      14.794  -6.116  14.878  0.00  0.00    -0.245 OA
ATOM      8  N   UNL d   1      13.853  -7.350  16.640  0.00  0.00    -0.308 N 
ATOM      9  H   UNL d   1      12.957  -7.556  17.076  0.00  0.00     0.170 HD
ATOM     10  H   UNL d   1      11.718  -6.385  15.818  0.00  0.00     0.192 HD
BRANCH   8  11
ATOM     11  C   UNL d   1      14.976  -7.975  17.228  0.00  0.00     0.037 A 
ATOM     12  C   UNL d   1      15.605  -9.037  16.578  0.00  0.00     0.045 A 
ATOM     13  C   UNL d   1      16.713  -9.653  17.159  0.00  0.00     0.050 A 
ATOM     14  C   UNL d   1      17.193  -9.208  18.390  0.00  0.00     0.016 A 
ATOM     15  C   UNL d   1      16.566  -8.145  19.041  0.00  0.00     0.003 A 
ATOM     16  C   UNL d   1      15.457  -7.529  18.460  0.00  0.00     0.029 A 
BRANCH  13  17
ATOM     17  C   UNL d   1      17.384 -10.790  16.464  0.00  0.00     0.417 C 
ATOM     18  F   UNL d   1      18.577 -10.453  15.889  0.00  0.00    -0.166 F 
ATOM     19  F   UNL d   1      16.640 -11.326  15.450  0.00  0.00    -0.166 F 
ATOM     20  F   UNL d   1      17.661 -11.830  17.303  0.00  0.00    -0.166 F 
ENDBRANCH  13  17
ENDBRANCH   8  11
ENDBRANCH   2   5
BRANCH   3  21
ATOM     21  C   UNL d   1      11.476  -4.660  12.073  0.00  0.00     0.078 C 
ATOM     22  C   UNL d   1      12.377  -4.514  11.091  0.00  0.00    -0.071 C 
ATOM     23  C   UNL d   1      12.262  -3.462  10.023  0.00  0.00     0.054 C 
ATOM     24  C   UNL d   1      13.605  -5.371  10.972  0.00  0.00     0.054 C 
ATOM     25  C   UNL d   1      13.531  -2.611   9.968  0.00  0.00     0.127 C 
ATOM     26  N   UNL d   1      14.729  -3.464   9.874  0.00  0.00    -0.380 N 
ATOM     27  C   UNL d   1      14.867  -4.508  10.901  0.00  0.00     0.127 C 
BRANCH  26  28
ATOM     28  C   UNL d   1      15.877  -2.902   9.304  0.00  0.00     0.030 A 
ATOM     29  C   UNL d   1      17.138  -3.381   9.661  0.00  0.00     0.032 A 
ATOM     30  C   UNL d   1      18.283  -2.822   9.092  0.00  0.00     0.038 A 
ATOM     31  C   UNL d   1      18.166  -1.784   8.167  0.00  0.00     0.103 A 
ATOM     32  C   UNL d   1      16.906  -1.305   7.811  0.00  0.00     0.038 A 
ATOM     33  C   UNL d   1      15.761  -1.865   8.379  0.00  0.00     0.032 A 
BRANCH  31  34
ATOM     34  N   UNL d   1      19.331  -1.213   7.590  0.00  0.00    -0.116 N 
ATOM     35  O   UNL d   1      19.435  -1.177   6.340  0.00  0.00    -0.532 OA
ATOM     36  O   UNL d   1      20.226  -0.762   8.345  0.00  0.00    -0.532 OA
ENDBRANCH  31  34
ENDBRANCH  26  28
ENDBRANCH   3  21
TORSDOF 6
ENDMDL
MODEL 6
REMARK VINA RESULT:      -1.5      6.538     10.447
REMARK  6 active torsions:
REMARK  status: ('A' for Active; 'I' for Inactive)
REMARK    1  A    between atoms: N_8  and  C_18 
REMARK    2  A    between atoms: N_9  and  N_11 
REMARK       I    between atoms: N_9  and  C_22 
REMARK    3  A    between atoms: N_10  and  C_25 
REMARK       I    between atoms: N_11  and  C_27 
REMARK    4  A    between atoms: N_12  and  C_26 
REMARK       I    between atoms: N_12  and  C_27 
REMARK    5  A    between atoms: C_19  and  C_22 
REMARK    6  A    between atoms: C_28  and  C_33 
ROOT
ATOM      1  O   UNL d   1      14.605  -4.919   6.620  0.00  0.00    -0.267 OA
ATOM      2  N   UNL d   1      16.338  -5.439   5.164  0.00  0.00    -0.263 N 
ATOM      3  C   UNL d   1      15.722  -4.707   6.160  0.00  0.00     0.260 C 
ATOM      4  H   UNL d   1      17.265  -5.245   4.802  0.00  0.00     0.190 HD
ENDROOT
BRANCH   2   5
ATOM      5  N   UNL d   1      15.670  -6.506   4.616  0.00  0.00    -0.248 N 
ATOM      6  C   UNL d   1      16.081  -7.801   4.933  0.00  0.00     0.339 C 
ATOM      7  O   UNL d   1      17.020  -8.044   5.688  0.00  0.00    -0.245 OA
ATOM      8  N   UNL d   1      15.275  -8.737   4.278  0.00  0.00    -0.308 N 
ATOM      9  H   UNL d   1      14.536  -8.364   3.687  0.00  0.00     0.170 HD
ATOM     10  H   UNL d   1      14.893  -6.300   4.000  0.00  0.00     0.192 HD
BRANCH   8  11
ATOM     11  C   UNL d   1      15.361 -10.147   4.333  0.00  0.00     0.037 A 
ATOM     12  C   UNL d   1      16.168 -10.834   3.428  0.00  0.00     0.045 A 
ATOM     13  C   UNL d   1      16.251 -12.225   3.483  0.00  0.00     0.050 A 
ATOM     14  C   UNL d   1      15.527 -12.929   4.444  0.00  0.00     0.016 A 
ATOM     15  C   UNL d   1      14.720 -12.243   5.351  0.00  0.00     0.003 A 
ATOM     16  C   UNL d   1      14.637 -10.852   5.296  0.00  0.00     0.029 A 
BRANCH  13  17
ATOM     17  C   UNL d   1      17.115 -12.959   2.513  0.00  0.00     0.417 C 
ATOM     18  F   UNL d   1      16.412 -13.633   1.555  0.00  0.00    -0.166 F 
ATOM     19  F   UNL d   1      17.913 -13.902   3.097  0.00  0.00    -0.166 F 
ATOM     20  F   UNL d   1      17.963 -12.133   1.834  0.00  0.00    -0.166 F 
ENDBRANCH  13  17
ENDBRANCH   8  11
ENDBRANCH   2   5
BRANCH   3  21
ATOM     21  C   UNL d   1      16.589  -3.598   6.632  0.00  0.00     0.078 C 
ATOM     22  C   UNL d   1      17.483  -3.806   7.609  0.00  0.00    -0.071 C 
ATOM     23  C   UNL d   1      18.390  -2.728   8.134  0.00  0.00     0.054 C 
ATOM     24  C   UNL d   1      17.654  -5.133   8.294  0.00  0.00     0.054 C 
ATOM     25  C   UNL d   1      18.243  -2.594   9.650  0.00  0.00     0.127 C 
ATOM     26  N   UNL d   1      18.389  -3.904  10.308  0.00  0.00    -0.380 N 
ATOM     27  C   UNL d   1      17.521  -4.982   9.811  0.00  0.00     0.127 C 
BRANCH  26  28
ATOM     28  C   UNL d   1      18.801  -3.911  11.645  0.00  0.00     0.030 A 
ATOM     29  C   UNL d   1      19.049  -2.707  12.306  0.00  0.00     0.032 A 
ATOM     30  C   UNL d   1      19.458  -2.714  13.638  0.00  0.00     0.038 A 
ATOM     31  C   UNL d   1      19.621  -3.926  14.312  0.00  0.00     0.103 A 
ATOM     32  C   UNL d   1      19.374  -5.129  13.652  0.00  0.00     0.038 A 
ATOM     33  C   UNL d   1      18.964  -5.122  12.319  0.00  0.00     0.032 A 
BRANCH  31  34
ATOM     34  N   UNL d   1      20.039  -3.933  15.669  0.00  0.00    -0.116 N 
ATOM     35  O   UNL d   1      20.040  -2.856  16.311  0.00  0.00    -0.532 OA
ATOM     36  O   UNL d   1      20.398  -5.018  16.189  0.00  0.00    -0.532 OA
ENDBRANCH  31  34
ENDBRANCH  26  28
ENDBRANCH   3  21
TORSDOF 6
ENDMDL
MODEL 7
REMARK VINA RESULT:      -1.4      6.052     10.490
REMARK  6 active torsions:
REMARK  status: ('A' for Active; 'I' for Inactive)
REMARK    1  A    between atoms: N_8  and  C_18 
REMARK    2  A    between atoms: N_9  and  N_11 
REMARK       I    between atoms: N_9  and  C_22 
REMARK    3  A    between atoms: N_10  and  C_25 
REMARK       I    between atoms: N_11  and  C_27 
REMARK    4  A    between atoms: N_12  and  C_26 
REMARK       I    between atoms: N_12  and  C_27 
REMARK    5  A    between atoms: C_19  and  C_22 
REMARK    6  A    between atoms: C_28  and  C_33 
ROOT
ATOM      1  O   UNL d   1      11.840  -3.370   8.517  0.00  0.00    -0.267 OA
ATOM      2  N   UNL d   1      13.418  -5.058   8.748  0.00  0.00    -0.263 N 
ATOM      3  C   UNL d   1      12.477  -4.160   9.208  0.00  0.00     0.260 C 
ATOM      4  H   UNL d   1      13.930  -5.704   9.340  0.00  0.00     0.190 HD
ENDROOT
BRANCH   2   5
ATOM      5  N   UNL d   1      13.692  -5.102   7.403  0.00  0.00    -0.248 N 
ATOM      6  C   UNL d   1      14.976  -5.449   6.981  0.00  0.00     0.339 C 
ATOM      7  O   UNL d   1      15.888  -5.723   7.757  0.00  0.00    -0.245 OA
ATOM      8  N   UNL d   1      15.045  -5.436   5.585  0.00  0.00    -0.308 N 
ATOM      9  H   UNL d   1      14.191  -5.187   5.091  0.00  0.00     0.170 HD
ATOM     10  H   UNL d   1      12.934  -4.881   6.769  0.00  0.00     0.192 HD
BRANCH   8  11
ATOM     11  C   UNL d   1      16.161  -5.728   4.767  0.00  0.00     0.037 A 
ATOM     12  C   UNL d   1      17.240  -4.847   4.718  0.00  0.00     0.045 A 
ATOM     13  C   UNL d   1      18.340  -5.136   3.911  0.00  0.00     0.050 A 
ATOM     14  C   UNL d   1      18.361  -6.306   3.153  0.00  0.00     0.016 A 
ATOM     15  C   UNL d   1      17.282  -7.189   3.204  0.00  0.00     0.003 A 
ATOM     16  C   UNL d   1      16.182  -6.900   4.011  0.00  0.00     0.029 A 
BRANCH  13  17
ATOM     17  C   UNL d   1      19.493  -4.192   3.857  0.00  0.00     0.417 C 
ATOM     18  F   UNL d   1      19.231  -2.974   4.419  0.00  0.00    -0.166 F 
ATOM     19  F   UNL d   1      19.915  -3.914   2.587  0.00  0.00    -0.166 F 
ATOM     20  F   UNL d   1      20.593  -4.668   4.511  0.00  0.00    -0.166 F 
ENDBRANCH  13  17
ENDBRANCH   8  11
ENDBRANCH   2   5
BRANCH   3  21
ATOM     21  C   UNL d   1      12.311  -4.254  10.680  0.00  0.00     0.078 C 
ATOM     22  C   UNL d   1      13.073  -3.510  11.495  0.00  0.00    -0.071 C 
ATOM     23  C   UNL d   1      12.958  -3.556  12.993  0.00  0.00     0.054 C 
ATOM     24  C   UNL d   1      14.135  -2.572  10.995  0.00  0.00     0.054 C 
ATOM     25  C   UNL d   1      14.315  -3.864  13.628  0.00  0.00     0.127 C 
ATOM     26  N   UNL d   1      15.352  -2.953  13.112  0.00  0.00    -0.380 N 
ATOM     27  C   UNL d   1      15.484  -2.879  11.649  0.00  0.00     0.127 C 
BRANCH  26  28
ATOM     28  C   UNL d   1      16.474  -2.732  13.917  0.00  0.00     0.030 A 
ATOM     29  C   UNL d   1      17.332  -3.789  14.224  0.00  0.00     0.032 A 
ATOM     30  C   UNL d   1      18.451  -3.569  15.026  0.00  0.00     0.038 A 
ATOM     31  C   UNL d   1      18.713  -2.292  15.523  0.00  0.00     0.103 A 
ATOM     32  C   UNL d   1      17.856  -1.235  15.217  0.00  0.00     0.038 A 
ATOM     33  C   UNL d   1      16.737  -1.455  14.414  0.00  0.00     0.032 A 
BRANCH  31  34
ATOM     34  N   UNL d   1      19.852  -2.068  16.341  0.00  0.00    -0.116 N 
ATOM     35  O   UNL d   1      20.088  -0.906  16.750  0.00  0.00    -0.532 OA
ATOM     36  O   UNL d   1      20.593  -3.038  16.631  0.00  0.00    -0.532 OA
ENDBRANCH  31  34
ENDBRANCH  26  28
ENDBRANCH   3  21
TORSDOF 6
ENDMDL
MODEL 8
REMARK VINA RESULT:      -1.4      5.925      9.905
REMARK  6 active torsions:
REMARK  status: ('A' for Active; 'I' for Inactive)
REMARK    1  A    between atoms: N_8  and  C_18 
REMARK    2  A    between atoms: N_9  and  N_11 
REMARK       I    between atoms: N_9  and  C_22 
REMARK    3  A    between atoms: N_10  and  C_25 
REMARK       I    between atoms: N_11  and  C_27 
REMARK    4  A    between atoms: N_12  and  C_26 
REMARK       I    between atoms: N_12  and  C_27 
REMARK    5  A    between atoms: C_19  and  C_22 
REMARK    6  A    between atoms: C_28  and  C_33 
ROOT
ATOM      1  O   UNL d   1      11.733  -6.072   8.535  0.00  0.00    -0.267 OA
ATOM      2  N   UNL d   1      11.936  -8.127   9.597  0.00  0.00    -0.263 N 
ATOM      3  C   UNL d   1      11.837  -6.751   9.552  0.00  0.00     0.260 C 
ATOM      4  H   UNL d   1      12.019  -8.666  10.452  0.00  0.00     0.190 HD
ENDROOT
BRANCH   2   5
ATOM      5  N   UNL d   1      11.919  -8.832   8.420  0.00  0.00    -0.248 N 
ATOM      6  C   UNL d   1      13.120  -9.307   7.893  0.00  0.00     0.339 C 
ATOM      7  O   UNL d   1      14.209  -9.126   8.432  0.00  0.00    -0.245 OA
ATOM      8  N   UNL d   1      12.885  -9.995   6.700  0.00  0.00    -0.308 N 
ATOM      9  H   UNL d   1      11.917 -10.053   6.392  0.00  0.00     0.170 HD
ATOM     10  H   UNL d   1      11.017  -8.983   7.983  0.00  0.00     0.192 HD
BRANCH   8  11
ATOM     11  C   UNL d   1      13.832 -10.626   5.859  0.00  0.00     0.037 A 
ATOM     12  C   UNL d   1      14.172 -11.961   6.070  0.00  0.00     0.045 A 
ATOM     13  C   UNL d   1      15.106 -12.582   5.240  0.00  0.00     0.050 A 
ATOM     14  C   UNL d   1      15.698 -11.868   4.199  0.00  0.00     0.016 A 
ATOM     15  C   UNL d   1      15.357 -10.532   3.988  0.00  0.00     0.003 A 
ATOM     16  C   UNL d   1      14.424  -9.911   4.817  0.00  0.00     0.029 A 
BRANCH  13  17
ATOM     17  C   UNL d   1      15.470 -14.011   5.466  0.00  0.00     0.417 C 
ATOM     18  F   UNL d   1      14.957 -14.862   4.529  0.00  0.00    -0.166 F 
ATOM     19  F   UNL d   1      15.039 -14.502   6.666  0.00  0.00    -0.166 F 
ATOM     20  F   UNL d   1      16.819 -14.218   5.450  0.00  0.00    -0.166 F 
ENDBRANCH  13  17
ENDBRANCH   8  11
ENDBRANCH   2   5
BRANCH   3  21
ATOM     21  C   UNL d   1      11.871  -6.159  10.913  0.00  0.00     0.078 C 
ATOM     22  C   UNL d   1      13.042  -5.840  11.482  0.00  0.00    -0.071 C 
ATOM     23  C   UNL d   1      13.149  -5.238  12.856  0.00  0.00     0.054 C 
ATOM     24  C   UNL d   1      14.368  -6.070  10.814  0.00  0.00     0.054 C 
ATOM     25  C   UNL d   1      14.078  -6.074  13.738  0.00  0.00     0.127 C 
ATOM     26  N   UNL d   1      15.365  -6.313  13.062  0.00  0.00    -0.380 N 
ATOM     27  C   UNL d   1      15.294  -6.894  11.712  0.00  0.00     0.127 C 
BRANCH  26  28
ATOM     28  C   UNL d   1      16.477  -6.579  13.869  0.00  0.00     0.030 A 
ATOM     29  C   UNL d   1      17.124  -5.535  14.532  0.00  0.00     0.032 A 
ATOM     30  C   UNL d   1      18.231  -5.800  15.337  0.00  0.00     0.038 A 
ATOM     31  C   UNL d   1      18.693  -7.109  15.478  0.00  0.00     0.103 A 
ATOM     32  C   UNL d   1      18.048  -8.152  14.815  0.00  0.00     0.038 A 
ATOM     33  C   UNL d   1      16.939  -7.887  14.011  0.00  0.00     0.032 A 
BRANCH  31  34
ATOM     34  N   UNL d   1      19.822  -7.379  16.296  0.00  0.00    -0.116 N 
ATOM     35  O   UNL d   1      20.593  -8.317  15.980  0.00  0.00    -0.532 OA
ATOM     36  O   UNL d   1      20.017  -6.672  17.316  0.00  0.00    -0.532 OA
ENDBRANCH  31  34
ENDBRANCH  26  28
ENDBRANCH   3  21
TORSDOF 6
ENDMDL
MODEL 9
REMARK VINA RESULT:      -1.4      7.349     11.193
REMARK  6 active torsions:
REMARK  status: ('A' for Active; 'I' for Inactive)
REMARK    1  A    between atoms: N_8  and  C_18 
REMARK    2  A    between atoms: N_9  and  N_11 
REMARK       I    between atoms: N_9  and  C_22 
REMARK    3  A    between atoms: N_10  and  C_25 
REMARK       I    between atoms: N_11  and  C_27 
REMARK    4  A    between atoms: N_12  and  C_26 
REMARK       I    between atoms: N_12  and  C_27 
REMARK    5  A    between atoms: C_19  and  C_22 
REMARK    6  A    between atoms: C_28  and  C_33 
ROOT
ATOM      1  O   UNL d   1      13.678  -1.539  10.855  0.00  0.00    -0.267 OA
ATOM      2  N   UNL d   1      14.578  -3.071  12.350  0.00  0.00    -0.263 N 
ATOM      3  C   UNL d   1      13.658  -2.628  11.421  0.00  0.00     0.260 C 
ATOM      4  H   UNL d   1      14.542  -3.978  12.803  0.00  0.00     0.190 HD
ENDROOT
BRANCH   2   5
ATOM      5  N   UNL d   1      15.622  -2.249  12.696  0.00  0.00    -0.248 N 
ATOM      6  C   UNL d   1      16.384  -2.553  13.823  0.00  0.00     0.339 C 
ATOM      7  O   UNL d   1      16.171  -3.532  14.535  0.00  0.00    -0.245 OA
ATOM      8  N   UNL d   1      17.390  -1.599  13.998  0.00  0.00    -0.308 N 
ATOM      9  H   UNL d   1      17.428  -0.849  13.312  0.00  0.00     0.170 HD
ATOM     10  H   UNL d   1      15.796  -1.447  12.101  0.00  0.00     0.192 HD
BRANCH   8  11
ATOM     11  C   UNL d   1      18.370  -1.546  15.016  0.00  0.00     0.037 A 
ATOM     12  C   UNL d   1      18.083  -0.924  16.230  0.00  0.00     0.045 A 
ATOM     13  C   UNL d   1      19.050  -0.872  17.233  0.00  0.00     0.050 A 
ATOM     14  C   UNL d   1      20.305  -1.442  17.022  0.00  0.00     0.016 A 
ATOM     15  C   UNL d   1      20.593  -2.065  15.808  0.00  0.00     0.003 A 
ATOM     16  C   UNL d   1      19.626  -2.118  14.805  0.00  0.00     0.029 A 
BRANCH  13  17
ATOM     17  C   UNL d   1      18.742  -0.205  18.531  0.00  0.00     0.417 C 
ATOM     18  F   UNL d   1      17.513   0.391  18.563  0.00  0.00    -0.166 F 
ATOM     19  F   UNL d   1      19.625   0.784  18.862  0.00  0.00    -0.166 F 
ATOM     20  F   UNL d   1      18.756  -1.073  19.584  0.00  0.00    -0.166 F 
ENDBRANCH  13  17
ENDBRANCH   8  11
ENDBRANCH   2   5
BRANCH   3  21
ATOM     21  C   UNL d   1      12.606  -3.645  11.171  0.00  0.00     0.078 C 
ATOM     22  C   UNL d   1      11.449  -3.600  11.847  0.00  0.00    -0.071 C 
ATOM     23  C   UNL d   1      10.342  -4.597  11.644  0.00  0.00     0.054 C 
ATOM     24  C   UNL d   1      11.149  -2.562  12.891  0.00  0.00     0.054 C 
ATOM     25  C   UNL d   1       9.951  -5.244  12.974  0.00  0.00     0.127 C 
ATOM     26  N   UNL d   1       9.682  -4.217  13.995  0.00  0.00    -0.380 N 
ATOM     27  C   UNL d   1      10.743  -3.222  14.212  0.00  0.00     0.127 C 
BRANCH  26  28
ATOM     28  C   UNL d   1       8.839  -4.568  15.056  0.00  0.00     0.030 A 
ATOM     29  C   UNL d   1       8.454  -5.898  15.230  0.00  0.00     0.032 A 
ATOM     30  C   UNL d   1       7.615  -6.248  16.287  0.00  0.00     0.038 A 
ATOM     31  C   UNL d   1       7.159  -5.268  17.170  0.00  0.00     0.103 A 
ATOM     32  C   UNL d   1       7.543  -3.939  16.995  0.00  0.00     0.038 A 
ATOM     33  C   UNL d   1       8.383  -3.589  15.938  0.00  0.00     0.032 A 
BRANCH  31  34
ATOM     34  N   UNL d   1       6.303  -5.624  18.245  0.00  0.00    -0.116 N 
ATOM     35  O   UNL d   1       5.338  -4.875  18.528  0.00  0.00    -0.532 OA
ATOM     36  O   UNL d   1       6.537  -6.678  18.885  0.00  0.00    -0.532 OA
ENDBRANCH  31  34
ENDBRANCH  26  28
ENDBRANCH   3  21
TORSDOF 6
ENDMDL
