MODEL 1
REMARK VINA RESULT:      -1.9      0.000      0.000
REMARK  1 active torsions:
REMARK  status: ('A' for Active; 'I' for Inactive)
REMARK    1  A    between atoms: O_1  and  C_13 
ROOT
ATOM      1  O   UNL d   1      19.651  -6.956  17.362  0.00  0.00    -0.298 OA
ATOM      2  C   UNL d   1      18.688  -3.227  12.243  0.00  0.00    -0.005 C 
ATOM      3  C   UNL d   1      18.470  -4.763  12.411  0.00  0.00    -0.002 C 
ATOM      4  C   UNL d   1      18.589  -2.880  10.753  0.00  0.00     0.001 C 
ATOM      5  C   UNL d   1      17.223  -3.249  10.144  0.00  0.00    -0.014 C 
ATOM      6  C   UNL d   1      18.608  -5.228  13.909  0.00  0.00    -0.036 C 
ATOM      7  C   UNL d   1      19.982  -4.731  14.461  0.00  0.00     0.001 C 
ATOM      8  C   UNL d   1      17.168  -5.245  11.712  0.00  0.00     0.007 C 
ATOM      9  C   UNL d   1      17.048  -4.770  10.253  0.00  0.00     0.012 C 
ATOM     10  C   UNL d   1      20.044  -2.802  12.822  0.00  0.00     0.006 C 
ATOM     11  C   UNL d   1      18.799  -1.434  10.308  0.00  0.00     0.008 C 
ATOM     12  C   UNL d   1      17.438  -2.727   8.711  0.00  0.00     0.126 C 
ATOM     13  C   UNL d   1      20.196  -3.222  14.280  0.00  0.00     0.006 C 
ATOM     14  C   UNL d   1      18.161  -1.380   8.909  0.00  0.00     0.033 C 
ATOM     15  C   UNL d   1      18.577  -6.788  13.985  0.00  0.00     0.017 C 
ATOM     16  C   UNL d   1      16.010  -2.539  10.799  0.00  0.00     0.018 C 
ATOM     17  C   UNL d   1      17.435  -4.681  14.765  0.00  0.00     0.016 C 
ATOM     18  C   UNL d   1      20.199  -5.117  15.933  0.00  0.00     0.083 C 
ATOM     19  C   UNL d   1      19.504  -7.423  15.021  0.00  0.00     0.079 C 
ATOM     20  C   UNL d   1      19.746  -6.531  16.210  0.00  0.00     0.127 C 
ENDROOT
BRANCH  12  21
ATOM     21  O   UNL d   1      16.230  -2.573   7.991  0.00  0.00    -0.395 OA
ATOM     22  H   UNL d   1      16.307  -3.038   7.142  0.00  0.00     0.210 HD
ENDBRANCH  12  21
TORSDOF 1
ENDMDL
MODEL 2
REMARK VINA RESULT:      -1.7      1.054      6.629
REMARK  1 active torsions:
REMARK  status: ('A' for Active; 'I' for Inactive)
REMARK    1  A    between atoms: O_1  and  C_13 
ROOT
ATOM      1  O   UNL d   1      16.313  -1.376   8.208  0.00  0.00    -0.298 OA
ATOM      2  C   UNL d   1      18.178  -5.691  12.559  0.00  0.00    -0.005 C 
ATOM      3  C   UNL d   1      18.679  -4.232  12.325  0.00  0.00    -0.002 C 
ATOM      4  C   UNL d   1      19.141  -6.389  13.525  0.00  0.00     0.001 C 
ATOM      5  C   UNL d   1      19.237  -5.681  14.890  0.00  0.00    -0.014 C 
ATOM      6  C   UNL d   1      17.781  -3.446  11.298  0.00  0.00    -0.036 C 
ATOM      7  C   UNL d   1      17.674  -4.285   9.985  0.00  0.00     0.001 C 
ATOM      8  C   UNL d   1      18.925  -3.479  13.662  0.00  0.00     0.007 C 
ATOM      9  C   UNL d   1      19.795  -4.270  14.656  0.00  0.00     0.012 C 
ATOM     10  C   UNL d   1      18.075  -6.452  11.231  0.00  0.00     0.006 C 
ATOM     11  C   UNL d   1      18.895  -7.849  13.898  0.00  0.00     0.008 C 
ATOM     12  C   UNL d   1      20.201  -6.645  15.606  0.00  0.00     0.126 C 
ATOM     13  C   UNL d   1      17.193  -5.722  10.224  0.00  0.00     0.006 C 
ATOM     14  C   UNL d   1      19.707  -8.045  15.191  0.00  0.00     0.033 C 
ATOM     15  C   UNL d   1      18.443  -2.072  10.958  0.00  0.00     0.017 C 
ATOM     16  C   UNL d   1      17.897  -5.586  15.663  0.00  0.00     0.018 C 
ATOM     17  C   UNL d   1      16.376  -3.168  11.897  0.00  0.00     0.016 C 
ATOM     18  C   UNL d   1      16.791  -3.607   8.925  0.00  0.00     0.083 C 
ATOM     19  C   UNL d   1      18.306  -1.609   9.507  0.00  0.00     0.079 C 
ATOM     20  C   UNL d   1      17.054  -2.122   8.847  0.00  0.00     0.127 C 
ENDROOT
BRANCH  12  21
ATOM     21  O   UNL d   1      20.201  -6.483  17.012  0.00  0.00    -0.395 OA
ATOM     22  H   UNL d   1      20.571  -5.612  17.229  0.00  0.00     0.210 HD
ENDBRANCH  12  21
TORSDOF 1
ENDMDL
MODEL 3
REMARK VINA RESULT:      -1.7      3.378      5.183
REMARK  1 active torsions:
REMARK  status: ('A' for Active; 'I' for Inactive)
REMARK    1  A    between atoms: O_1  and  C_13 
ROOT
ATOM      1  O   UNL d   1      18.698  -8.699  13.432  0.00  0.00    -0.298 OA
ATOM      2  C   UNL d   1      18.007  -2.436  14.586  0.00  0.00    -0.005 C 
ATOM      3  C   UNL d   1      18.826  -3.509  15.370  0.00  0.00    -0.002 C 
ATOM      4  C   UNL d   1      17.937  -1.161  15.433  0.00  0.00     0.001 C 
ATOM      5  C   UNL d   1      19.327  -0.577  15.751  0.00  0.00    -0.014 C 
ATOM      6  C   UNL d   1      18.908  -4.880  14.601  0.00  0.00    -0.036 C 
ATOM      7  C   UNL d   1      17.458  -5.342  14.247  0.00  0.00     0.001 C 
ATOM      8  C   UNL d   1      20.201  -2.960  15.841  0.00  0.00     0.007 C 
ATOM      9  C   UNL d   1      20.099  -1.612  16.580  0.00  0.00     0.012 C 
ATOM     10  C   UNL d   1      16.604  -2.958  14.252  0.00  0.00     0.006 C 
ATOM     11  C   UNL d   1      17.158   0.043  14.906  0.00  0.00     0.008 C 
ATOM     12  C   UNL d   1      18.899   0.681  16.529  0.00  0.00     0.126 C 
ATOM     13  C   UNL d   1      16.654  -4.277  13.489  0.00  0.00     0.006 C 
ATOM     14  C   UNL d   1      17.699   1.226  15.729  0.00  0.00     0.033 C 
ATOM     15  C   UNL d   1      19.564  -5.962  15.518  0.00  0.00     0.017 C 
ATOM     16  C   UNL d   1      20.162  -0.182  14.506  0.00  0.00     0.018 C 
ATOM     17  C   UNL d   1      19.776  -4.742  13.322  0.00  0.00     0.016 C 
ATOM     18  C   UNL d   1      17.436  -6.666  13.469  0.00  0.00     0.083 C 
ATOM     19  C   UNL d   1      18.985  -7.372  15.401  0.00  0.00     0.079 C 
ATOM     20  C   UNL d   1      18.423  -7.660  14.034  0.00  0.00     0.127 C 
ENDROOT
BRANCH  12  21
ATOM     21  O   UNL d   1      19.933   1.640  16.641  0.00  0.00    -0.395 OA
ATOM     22  H   UNL d   1      19.576   2.443  17.056  0.00  0.00     0.210 HD
ENDBRANCH  12  21
TORSDOF 1
ENDMDL
MODEL 4
REMARK VINA RESULT:      -1.7      3.253      5.266
REMARK  1 active torsions:
REMARK  status: ('A' for Active; 'I' for Inactive)
REMARK    1  A    between atoms: O_1  and  C_13 
ROOT
ATOM      1  O   UNL d   1      16.813 -13.035  16.098  0.00  0.00    -0.298 OA
ATOM      2  C   UNL d   1      17.705  -6.800  14.928  0.00  0.00    -0.005 C 
ATOM      3  C   UNL d   1      18.690  -7.998  14.751  0.00  0.00    -0.002 C 
ATOM      4  C   UNL d   1      18.494  -5.494  14.786  0.00  0.00     0.001 C 
ATOM      5  C   UNL d   1      19.185  -5.359  13.416  0.00  0.00    -0.014 C 
ATOM      6  C   UNL d   1      17.980  -9.391  14.935  0.00  0.00    -0.036 C 
ATOM      7  C   UNL d   1      17.237  -9.395  16.309  0.00  0.00     0.001 C 
ATOM      8  C   UNL d   1      19.525  -7.876  13.446  0.00  0.00     0.007 C 
ATOM      9  C   UNL d   1      20.201  -6.502  13.281  0.00  0.00     0.012 C 
ATOM     10  C   UNL d   1      16.994  -6.875  16.285  0.00  0.00     0.006 C 
ATOM     11  C   UNL d   1      17.766  -4.161  14.950  0.00  0.00     0.008 C 
ATOM     12  C   UNL d   1      19.808  -3.961  13.586  0.00  0.00     0.126 C 
ATOM     13  C   UNL d   1      16.280  -8.207  16.481  0.00  0.00     0.006 C 
ATOM     14  C   UNL d   1      18.703  -3.141  14.279  0.00  0.00     0.033 C 
ATOM     15  C   UNL d   1      19.047 -10.532  14.943  0.00  0.00     0.017 C 
ATOM     16  C   UNL d   1      18.222  -5.376  12.202  0.00  0.00     0.018 C 
ATOM     17  C   UNL d   1      16.994  -9.663  13.768  0.00  0.00     0.016 C 
ATOM     18  C   UNL d   1      16.488 -10.712  16.568  0.00  0.00     0.083 C 
ATOM     19  C   UNL d   1      18.779 -11.686  15.910  0.00  0.00     0.079 C 
ATOM     20  C   UNL d   1      17.310 -11.910  16.156  0.00  0.00     0.127 C 
ENDROOT
BRANCH  12  21
ATOM     21  O   UNL d   1      20.201  -3.378  12.357  0.00  0.00    -0.395 OA
ATOM     22  H   UNL d   1      20.400  -4.086  11.722  0.00  0.00     0.210 HD
ENDBRANCH  12  21
TORSDOF 1
ENDMDL
MODEL 5
REMARK VINA RESULT:      -1.6      3.542      4.956
REMARK  1 active torsions:
REMARK  status: ('A' for Active; 'I' for Inactive)
REMARK    1  A    between atoms: O_1  and  C_13 
ROOT
ATOM      1  O   UNL d   1      16.036  -7.391  19.490  0.00  0.00    -0.298 OA
ATOM      2  C   UNL d   1      18.671  -7.996  13.682  0.00  0.00    -0.005 C 
ATOM      3  C   UNL d   1      17.186  -8.184  14.127  0.00  0.00    -0.002 C 
ATOM      4  C   UNL d   1      18.825  -8.537  12.257  0.00  0.00     0.001 C 
ATOM      5  C   UNL d   1      17.916  -7.817  11.242  0.00  0.00    -0.014 C 
ATOM      6  C   UNL d   1      16.939  -7.706  15.607  0.00  0.00    -0.036 C 
ATOM      7  C   UNL d   1      17.964  -8.423  16.542  0.00  0.00     0.001 C 
ATOM      8  C   UNL d   1      16.189  -7.594  13.091  0.00  0.00     0.007 C 
ATOM      9  C   UNL d   1      16.457  -8.065  11.650  0.00  0.00     0.012 C 
ATOM     10  C   UNL d   1      19.624  -8.705  14.651  0.00  0.00     0.006 C 
ATOM     11  C   UNL d   1      20.199  -8.502  11.590  0.00  0.00     0.008 C 
ATOM     12  C   UNL d   1      18.356  -8.538   9.954  0.00  0.00     0.126 C 
ATOM     13  C   UNL d   1      19.420  -8.245  16.090  0.00  0.00     0.006 C 
ATOM     14  C   UNL d   1      19.888  -8.642  10.089  0.00  0.00     0.033 C 
ATOM     15  C   UNL d   1      15.495  -8.101  16.056  0.00  0.00     0.017 C 
ATOM     16  C   UNL d   1      18.167  -6.292  11.118  0.00  0.00     0.018 C 
ATOM     17  C   UNL d   1      17.071  -6.164  15.715  0.00  0.00     0.016 C 
ATOM     18  C   UNL d   1      17.816  -7.999  18.011  0.00  0.00     0.083 C 
ATOM     19  C   UNL d   1      15.350  -8.546  17.511  0.00  0.00     0.079 C 
ATOM     20  C   UNL d   1      16.365  -7.905  18.420  0.00  0.00     0.127 C 
ENDROOT
BRANCH  12  21
ATOM     21  O   UNL d   1      17.978  -7.848   8.778  0.00  0.00    -0.395 OA
ATOM     22  H   UNL d   1      18.246  -6.918   8.858  0.00  0.00     0.210 HD
ENDBRANCH  12  21
TORSDOF 1
ENDMDL
MODEL 6
REMARK VINA RESULT:      -1.4      3.146      6.850
REMARK  1 active torsions:
REMARK  status: ('A' for Active; 'I' for Inactive)
REMARK    1  A    between atoms: O_1  and  C_13 
ROOT
ATOM      1  O   UNL d   1      16.546  -1.817  13.625  0.00  0.00    -0.298 OA
ATOM      2  C   UNL d   1      18.765  -7.801  14.175  0.00  0.00    -0.005 C 
ATOM      3  C   UNL d   1      17.690  -7.054  15.027  0.00  0.00    -0.002 C 
ATOM      4  C   UNL d   1      19.138  -9.102  14.893  0.00  0.00     0.001 C 
ATOM      5  C   UNL d   1      17.933 -10.042  15.092  0.00  0.00    -0.014 C 
ATOM      6  C   UNL d   1      17.280  -5.671  14.396  0.00  0.00    -0.036 C 
ATOM      7  C   UNL d   1      18.573  -4.831  14.151  0.00  0.00     0.001 C 
ATOM      8  C   UNL d   1      16.489  -7.974  15.383  0.00  0.00     0.007 C 
ATOM      9  C   UNL d   1      16.913  -9.325  15.987  0.00  0.00     0.012 C 
ATOM     10  C   UNL d   1      19.997  -6.915  13.954  0.00  0.00     0.006 C 
ATOM     11  C   UNL d   1      20.201 -10.012  14.282  0.00  0.00     0.008 C 
ATOM     12  C   UNL d   1      18.650 -11.232  15.758  0.00  0.00     0.126 C 
ATOM     13  C   UNL d   1      19.630  -5.576  13.326  0.00  0.00     0.006 C 
ATOM     14  C   UNL d   1      19.960 -11.374  14.959  0.00  0.00     0.033 C 
ATOM     15  C   UNL d   1      16.359  -4.890  15.388  0.00  0.00     0.017 C 
ATOM     16  C   UNL d   1      17.243 -10.495  13.780  0.00  0.00     0.018 C 
ATOM     17  C   UNL d   1      16.495  -5.882  13.074  0.00  0.00     0.016 C 
ATOM     18  C   UNL d   1      18.275  -3.466  13.511  0.00  0.00     0.083 C 
ATOM     19  C   UNL d   1      16.569  -3.376  15.437  0.00  0.00     0.079 C 
ATOM     20  C   UNL d   1      17.062  -2.813  14.131  0.00  0.00     0.127 C 
ENDROOT
BRANCH  12  21
ATOM     21  O   UNL d   1      17.887 -12.423  15.730  0.00  0.00    -0.395 OA
ATOM     22  H   UNL d   1      18.134 -12.937  14.944  0.00  0.00     0.210 HD
ENDBRANCH  12  21
TORSDOF 1
ENDMDL
MODEL 7
REMARK VINA RESULT:      -1.4      7.542     10.691
REMARK  1 active torsions:
REMARK  status: ('A' for Active; 'I' for Inactive)
REMARK    1  A    between atoms: O_1  and  C_13 
ROOT
ATOM      1  O   UNL d   1      14.679  -5.061  19.771  0.00  0.00    -0.298 OA
ATOM      2  C   UNL d   1      15.312 -11.378  18.918  0.00  0.00    -0.005 C 
ATOM      3  C   UNL d   1      15.763 -10.199  18.000  0.00  0.00    -0.002 C 
ATOM      4  C   UNL d   1      15.436 -12.686  18.128  0.00  0.00     0.001 C 
ATOM      5  C   UNL d   1      16.875 -12.962  17.650  0.00  0.00    -0.014 C 
ATOM      6  C   UNL d   1      15.619  -8.800  18.708  0.00  0.00    -0.036 C 
ATOM      7  C   UNL d   1      14.155  -8.654  19.232  0.00  0.00     0.001 C 
ATOM      8  C   UNL d   1      17.161 -10.454  17.371  0.00  0.00     0.007 C 
ATOM      9  C   UNL d   1      17.284 -11.832  16.695  0.00  0.00     0.012 C 
ATOM     10  C   UNL d   1      13.877 -11.164  19.414  0.00  0.00     0.006 C 
ATOM     11  C   UNL d   1      15.023 -13.999  18.790  0.00  0.00     0.008 C 
ATOM     12  C   UNL d   1      16.657 -14.328  16.975  0.00  0.00     0.126 C 
ATOM     13  C   UNL d   1      13.714  -9.824  20.122  0.00  0.00     0.006 C 
ATOM     14  C   UNL d   1      15.719 -15.078  17.941  0.00  0.00     0.033 C 
ATOM     15  C   UNL d   1      15.895  -7.656  17.679  0.00  0.00     0.017 C 
ATOM     16  C   UNL d   1      17.921 -13.083  18.788  0.00  0.00     0.018 C 
ATOM     17  C   UNL d   1      16.642  -8.662  19.866  0.00  0.00     0.016 C 
ATOM     18  C   UNL d   1      13.923  -7.323  19.964  0.00  0.00     0.083 C 
ATOM     19  C   UNL d   1      15.026  -6.407  17.825  0.00  0.00     0.079 C 
ATOM     20  C   UNL d   1      14.580  -6.169  19.244  0.00  0.00     0.127 C 
ENDROOT
BRANCH  12  21
ATOM     21  O   UNL d   1      17.863 -15.037  16.760  0.00  0.00    -0.395 OA
ATOM     22  H   UNL d   1      18.602 -14.406  16.753  0.00  0.00     0.210 HD
ENDBRANCH  12  21
TORSDOF 1
ENDMDL
MODEL 8
REMARK VINA RESULT:      -1.4      1.603      6.581
REMARK  1 active torsions:
REMARK  status: ('A' for Active; 'I' for Inactive)
REMARK    1  A    between atoms: O_1  and  C_13 
ROOT
ATOM      1  O   UNL d   1      15.698  -2.502   8.798  0.00  0.00    -0.298 OA
ATOM      2  C   UNL d   1      18.269  -5.496  13.844  0.00  0.00    -0.005 C 
ATOM      3  C   UNL d   1      16.768  -5.271  13.477  0.00  0.00    -0.002 C 
ATOM      4  C   UNL d   1      18.347  -6.008  15.286  0.00  0.00     0.001 C 
ATOM      5  C   UNL d   1      17.590  -7.335  15.492  0.00  0.00    -0.014 C 
ATOM      6  C   UNL d   1      16.586  -4.690  12.025  0.00  0.00    -0.036 C 
ATOM      7  C   UNL d   1      17.459  -3.402  11.890  0.00  0.00     0.001 C 
ATOM      8  C   UNL d   1      15.902  -6.527  13.774  0.00  0.00     0.007 C 
ATOM      9  C   UNL d   1      16.104  -7.086  15.194  0.00  0.00     0.012 C 
ATOM     10  C   UNL d   1      19.072  -4.201  13.670  0.00  0.00     0.006 C 
ATOM     11  C   UNL d   1      19.715  -6.280  15.908  0.00  0.00     0.008 C 
ATOM     12  C   UNL d   1      17.916  -7.583  16.976  0.00  0.00     0.126 C 
ATOM     13  C   UNL d   1      18.930  -3.627  12.265  0.00  0.00     0.006 C 
ATOM     14  C   UNL d   1      19.405  -7.204  17.099  0.00  0.00     0.033 C 
ATOM     15  C   UNL d   1      15.090  -4.303  11.793  0.00  0.00     0.017 C 
ATOM     16  C   UNL d   1      18.102  -8.512  14.623  0.00  0.00     0.018 C 
ATOM     17  C   UNL d   1      16.982  -5.745  10.958  0.00  0.00     0.016 C 
ATOM     18  C   UNL d   1      17.367  -2.773  10.491  0.00  0.00     0.083 C 
ATOM     19  C   UNL d   1      14.850  -3.039  10.968  0.00  0.00     0.079 C 
ATOM     20  C   UNL d   1      15.948  -2.776   9.972  0.00  0.00     0.127 C 
ENDROOT
BRANCH  12  21
ATOM     21  O   UNL d   1      17.680  -8.919  17.378  0.00  0.00    -0.395 OA
ATOM     22  H   UNL d   1      18.223  -9.114  18.159  0.00  0.00     0.210 HD
ENDBRANCH  12  21
TORSDOF 1
ENDMDL
MODEL 9
REMARK VINA RESULT:      -1.3      6.054      7.945
REMARK  1 active torsions:
REMARK  status: ('A' for Active; 'I' for Inactive)
REMARK    1  A    between atoms: O_1  and  C_13 
ROOT
ATOM      1  O   UNL d   1      10.331  -1.106  19.656  0.00  0.00    -0.298 OA
ATOM      2  C   UNL d   1      16.493  -0.530  18.003  0.00  0.00    -0.005 C 
ATOM      3  C   UNL d   1      15.483  -1.681  17.698  0.00  0.00    -0.002 C 
ATOM      4  C   UNL d   1      17.902  -1.009  17.638  0.00  0.00     0.001 C 
ATOM      5  C   UNL d   1      18.037  -1.396  16.153  0.00  0.00    -0.014 C 
ATOM      6  C   UNL d   1      14.007  -1.303  18.093  0.00  0.00    -0.036 C 
ATOM      7  C   UNL d   1      13.991  -0.841  19.585  0.00  0.00     0.001 C 
ATOM      8  C   UNL d   1      15.637  -2.221  16.249  0.00  0.00     0.007 C 
ATOM      9  C   UNL d   1      17.090  -2.572  15.880  0.00  0.00     0.012 C 
ATOM     10  C   UNL d   1      16.413  -0.111  19.476  0.00  0.00     0.006 C 
ATOM     11  C   UNL d   1      19.090  -0.077  17.872  0.00  0.00     0.008 C 
ATOM     12  C   UNL d   1      19.535  -1.754  16.121  0.00  0.00     0.126 C 
ATOM     13  C   UNL d   1      14.996   0.280  19.880  0.00  0.00     0.006 C 
ATOM     14  C   UNL d   1      20.199  -0.657  16.976  0.00  0.00     0.033 C 
ATOM     15  C   UNL d   1      13.084  -2.556  17.950  0.00  0.00     0.017 C 
ATOM     16  C   UNL d   1      17.737  -0.247  15.156  0.00  0.00     0.018 C 
ATOM     17  C   UNL d   1      13.456  -0.191  17.161  0.00  0.00     0.016 C 
ATOM     18  C   UNL d   1      12.589  -0.426  20.057  0.00  0.00     0.083 C 
ATOM     19  C   UNL d   1      11.992  -2.701  19.010  0.00  0.00     0.079 C 
ATOM     20  C   UNL d   1      11.528  -1.376  19.555  0.00  0.00     0.127 C 
ENDROOT
BRANCH  12  21
ATOM     21  O   UNL d   1      20.066  -1.792  14.810  0.00  0.00    -0.395 OA
ATOM     22  H   UNL d   1      20.820  -1.181  14.758  0.00  0.00     0.210 HD
ENDBRANCH  12  21
TORSDOF 1
ENDMDL
