MODEL 1
REMARK VINA RESULT:      -7.7      0.000      0.000
REMARK  6 active torsions:
REMARK  status: ('A' for Active; 'I' for Inactive)
REMARK    1  A    between atoms: N_8  and  C_18 
REMARK    2  A    between atoms: N_9  and  N_11 
REMARK       I    between atoms: N_9  and  C_22 
REMARK    3  A    between atoms: N_10  and  C_25 
REMARK       I    between atoms: N_11  and  C_27 
REMARK    4  A    between atoms: N_12  and  C_26 
REMARK       I    between atoms: N_12  and  C_27 
REMARK    5  A    between atoms: C_19  and  C_22 
REMARK    6  A    between atoms: C_28  and  C_33 
ROOT
ATOM      1  O   UNL d   1      11.872   4.760   9.410  0.00  0.00    -0.267 OA
ATOM      2  N   UNL d   1      10.369   3.221   8.533  0.00  0.00    -0.263 N 
ATOM      3  C   UNL d   1      10.788   4.483   8.905  0.00  0.00     0.260 C 
ATOM      4  H   UNL d   1       9.468   3.018   8.114  0.00  0.00     0.190 HD
ENDROOT
BRANCH   2   5
ATOM      5  N   UNL d   1      11.214   2.157   8.729  0.00  0.00    -0.248 N 
ATOM      6  C   UNL d   1      11.487   1.299   7.664  0.00  0.00     0.339 C 
ATOM      7  O   UNL d   1      11.006   1.445   6.542  0.00  0.00    -0.245 OA
ATOM      8  N   UNL d   1      12.363   0.289   8.070  0.00  0.00    -0.308 N 
ATOM      9  H   UNL d   1      12.668   0.316   9.040  0.00  0.00     0.170 HD
ATOM     10  H   UNL d   1      11.612   2.046   9.654  0.00  0.00     0.192 HD
BRANCH   8  11
ATOM     11  C   UNL d   1      12.883  -0.774   7.295  0.00  0.00     0.037 A 
ATOM     12  C   UNL d   1      14.191  -0.713   6.816  0.00  0.00     0.045 A 
ATOM     13  C   UNL d   1      14.703  -1.762   6.052  0.00  0.00     0.050 A 
ATOM     14  C   UNL d   1      13.908  -2.871   5.768  0.00  0.00     0.016 A 
ATOM     15  C   UNL d   1      12.600  -2.933   6.249  0.00  0.00     0.003 A 
ATOM     16  C   UNL d   1      12.088  -1.884   7.012  0.00  0.00     0.029 A 
BRANCH  13  17
ATOM     17  C   UNL d   1      16.102  -1.696   5.539  0.00  0.00     0.417 C 
ATOM     18  F   UNL d   1      16.842  -2.810   5.819  0.00  0.00    -0.166 F 
ATOM     19  F   UNL d   1      16.824  -0.653   6.048  0.00  0.00    -0.166 F 
ATOM     20  F   UNL d   1      16.158  -1.551   4.183  0.00  0.00    -0.166 F 
ENDBRANCH  13  17
ENDBRANCH   8  11
ENDBRANCH   2   5
BRANCH   3  21
ATOM     21  C   UNL d   1       9.750   5.506   8.619  0.00  0.00     0.078 C 
ATOM     22  C   UNL d   1       8.941   5.940   9.596  0.00  0.00    -0.071 C 
ATOM     23  C   UNL d   1       7.871   6.972   9.375  0.00  0.00     0.054 C 
ATOM     24  C   UNL d   1       9.008   5.424  11.005  0.00  0.00     0.054 C 
ATOM     25  C   UNL d   1       6.512   6.444   9.838  0.00  0.00     0.127 C 
ATOM     26  N   UNL d   1       6.596   5.920  11.213  0.00  0.00    -0.380 N 
ATOM     27  C   UNL d   1       7.639   4.914  11.463  0.00  0.00     0.127 C 
BRANCH  26  28
ATOM     28  C   UNL d   1       5.416   5.891  11.964  0.00  0.00     0.030 A 
ATOM     29  C   UNL d   1       4.509   6.947  11.879  0.00  0.00     0.032 A 
ATOM     30  C   UNL d   1       3.332   6.918  12.627  0.00  0.00     0.038 A 
ATOM     31  C   UNL d   1       3.064   5.833  13.463  0.00  0.00     0.103 A 
ATOM     32  C   UNL d   1       3.971   4.778  13.549  0.00  0.00     0.038 A 
ATOM     33  C   UNL d   1       5.147   4.807  12.799  0.00  0.00     0.032 A 
BRANCH  31  34
ATOM     34  N   UNL d   1       1.867   5.804  14.226  0.00  0.00    -0.116 N 
ATOM     35  O   UNL d   1       1.049   4.872  14.039  0.00  0.00    -0.532 OA
ATOM     36  O   UNL d   1       1.660   6.713  15.068  0.00  0.00    -0.532 OA
ENDBRANCH  31  34
ENDBRANCH  26  28
ENDBRANCH   3  21
TORSDOF 6
ENDMDL
MODEL 2
REMARK VINA RESULT:      -7.5      2.676      3.129
REMARK  6 active torsions:
REMARK  status: ('A' for Active; 'I' for Inactive)
REMARK    1  A    between atoms: N_8  and  C_18 
REMARK    2  A    between atoms: N_9  and  N_11 
REMARK       I    between atoms: N_9  and  C_22 
REMARK    3  A    between atoms: N_10  and  C_25 
REMARK       I    between atoms: N_11  and  C_27 
REMARK    4  A    between atoms: N_12  and  C_26 
REMARK       I    between atoms: N_12  and  C_27 
REMARK    5  A    between atoms: C_19  and  C_22 
REMARK    6  A    between atoms: C_28  and  C_33 
ROOT
ATOM      1  O   UNL d   1      11.845   4.621   9.488  0.00  0.00    -0.267 OA
ATOM      2  N   UNL d   1      10.417   3.349   8.170  0.00  0.00    -0.263 N 
ATOM      3  C   UNL d   1      10.817   4.494   8.830  0.00  0.00     0.260 C 
ATOM      4  H   UNL d   1       9.563   3.270   7.629  0.00  0.00     0.190 HD
ENDROOT
BRANCH   2   5
ATOM      5  N   UNL d   1      11.216   2.235   8.232  0.00  0.00    -0.248 N 
ATOM      6  C   UNL d   1      10.762   1.109   8.919  0.00  0.00     0.339 C 
ATOM      7  O   UNL d   1       9.670   1.059   9.481  0.00  0.00    -0.245 OA
ATOM      8  N   UNL d   1      11.718   0.091   8.862  0.00  0.00    -0.308 N 
ATOM      9  H   UNL d   1      12.573   0.299   8.352  0.00  0.00     0.170 HD
ATOM     10  H   UNL d   1      12.113   2.281   7.762  0.00  0.00     0.192 HD
BRANCH   8  11
ATOM     11  C   UNL d   1      11.644  -1.203   9.429  0.00  0.00     0.037 A 
ATOM     12  C   UNL d   1      12.783  -1.790   9.978  0.00  0.00     0.045 A 
ATOM     13  C   UNL d   1      12.710  -3.066  10.537  0.00  0.00     0.050 A 
ATOM     14  C   UNL d   1      11.497  -3.754  10.547  0.00  0.00     0.016 A 
ATOM     15  C   UNL d   1      10.357  -3.167   9.999  0.00  0.00     0.003 A 
ATOM     16  C   UNL d   1      10.431  -1.891   9.440  0.00  0.00     0.029 A 
BRANCH  13  17
ATOM     17  C   UNL d   1      13.929  -3.694  11.124  0.00  0.00     0.417 C 
ATOM     18  F   UNL d   1      13.832  -3.929  12.466  0.00  0.00    -0.166 F 
ATOM     19  F   UNL d   1      15.058  -2.939  10.976  0.00  0.00    -0.166 F 
ATOM     20  F   UNL d   1      14.221  -4.902  10.560  0.00  0.00    -0.166 F 
ENDBRANCH  13  17
ENDBRANCH   8  11
ENDBRANCH   2   5
BRANCH   3  21
ATOM     21  C   UNL d   1       9.836   5.594   8.653  0.00  0.00     0.078 C 
ATOM     22  C   UNL d   1       9.027   5.948   9.662  0.00  0.00    -0.071 C 
ATOM     23  C   UNL d   1       8.011   7.050   9.550  0.00  0.00     0.054 C 
ATOM     24  C   UNL d   1       9.039   5.264  11.000  0.00  0.00     0.054 C 
ATOM     25  C   UNL d   1       6.619   6.539   9.925  0.00  0.00     0.127 C 
ATOM     26  N   UNL d   1       6.649   5.851  11.227  0.00  0.00    -0.380 N 
ATOM     27  C   UNL d   1       7.638   4.771  11.371  0.00  0.00     0.127 C 
BRANCH  26  28
ATOM     28  C   UNL d   1       5.453   5.790  11.951  0.00  0.00     0.030 A 
ATOM     29  C   UNL d   1       5.153   4.659  12.710  0.00  0.00     0.032 A 
ATOM     30  C   UNL d   1       3.962   4.598  13.433  0.00  0.00     0.038 A 
ATOM     31  C   UNL d   1       3.069   5.670  13.395  0.00  0.00     0.103 A 
ATOM     32  C   UNL d   1       3.368   6.801  12.636  0.00  0.00     0.038 A 
ATOM     33  C   UNL d   1       4.560   6.861  11.914  0.00  0.00     0.032 A 
BRANCH  31  34
ATOM     34  N   UNL d   1       1.855   5.609  14.129  0.00  0.00    -0.116 N 
ATOM     35  O   UNL d   1       1.065   4.657  13.920  0.00  0.00    -0.532 OA
ATOM     36  O   UNL d   1       1.605   6.509  14.968  0.00  0.00    -0.532 OA
ENDBRANCH  31  34
ENDBRANCH  26  28
ENDBRANCH   3  21
TORSDOF 6
ENDMDL
MODEL 3
REMARK VINA RESULT:      -7.4     12.007     15.700
REMARK  6 active torsions:
REMARK  status: ('A' for Active; 'I' for Inactive)
REMARK    1  A    between atoms: N_8  and  C_18 
REMARK    2  A    between atoms: N_9  and  N_11 
REMARK       I    between atoms: N_9  and  C_22 
REMARK    3  A    between atoms: N_10  and  C_25 
REMARK       I    between atoms: N_11  and  C_27 
REMARK    4  A    between atoms: N_12  and  C_26 
REMARK       I    between atoms: N_12  and  C_27 
REMARK    5  A    between atoms: C_19  and  C_22 
REMARK    6  A    between atoms: C_28  and  C_33 
ROOT
ATOM      1  O   UNL d   1      18.464   4.248  -1.954  0.00  0.00    -0.267 OA
ATOM      2  N   UNL d   1      18.606   5.480   0.010  0.00  0.00    -0.263 N 
ATOM      3  C   UNL d   1      18.898   4.415  -0.818  0.00  0.00     0.260 C 
ATOM      4  H   UNL d   1      18.980   5.596   0.946  0.00  0.00     0.190 HD
ENDROOT
BRANCH   2   5
ATOM      5  N   UNL d   1      17.759   6.460  -0.444  0.00  0.00    -0.248 N 
ATOM      6  C   UNL d   1      18.235   7.765  -0.573  0.00  0.00     0.339 C 
ATOM      7  O   UNL d   1      19.388   8.091  -0.299  0.00  0.00    -0.245 OA
ATOM      8  N   UNL d   1      17.223   8.603  -1.048  0.00  0.00    -0.308 N 
ATOM      9  H   UNL d   1      16.321   8.169  -1.226  0.00  0.00     0.170 HD
ATOM     10  H   UNL d   1      16.812   6.184  -0.674  0.00  0.00     0.192 HD
BRANCH   8  11
ATOM     11  C   UNL d   1      17.296   9.990  -1.314  0.00  0.00     0.037 A 
ATOM     12  C   UNL d   1      17.202  10.908  -0.268  0.00  0.00     0.045 A 
ATOM     13  C   UNL d   1      17.275  12.275  -0.532  0.00  0.00     0.050 A 
ATOM     14  C   UNL d   1      17.442  12.726  -1.841  0.00  0.00     0.016 A 
ATOM     15  C   UNL d   1      17.537  11.808  -2.887  0.00  0.00     0.003 A 
ATOM     16  C   UNL d   1      17.465  10.441  -2.624  0.00  0.00     0.029 A 
BRANCH  13  17
ATOM     17  C   UNL d   1      17.173  13.256   0.587  0.00  0.00     0.417 C 
ATOM     18  F   UNL d   1      18.203  13.178   1.481  0.00  0.00    -0.166 F 
ATOM     19  F   UNL d   1      16.040  13.114   1.339  0.00  0.00    -0.166 F 
ATOM     20  F   UNL d   1      17.162  14.550   0.153  0.00  0.00    -0.166 F 
ENDBRANCH  13  17
ENDBRANCH   8  11
ENDBRANCH   2   5
BRANCH   3  21
ATOM     21  C   UNL d   1      19.826   3.458  -0.164  0.00  0.00     0.078 C 
ATOM     22  C   UNL d   1      19.379   2.271   0.269  0.00  0.00    -0.071 C 
ATOM     23  C   UNL d   1      20.263   1.256   0.939  0.00  0.00     0.054 C 
ATOM     24  C   UNL d   1      17.944   1.842   0.148  0.00  0.00     0.054 C 
ATOM     25  C   UNL d   1      19.687   0.855   2.298  0.00  0.00     0.127 C 
ATOM     26  N   UNL d   1      18.274   0.459   2.170  0.00  0.00    -0.380 N 
ATOM     27  C   UNL d   1      17.384   1.428   1.512  0.00  0.00     0.127 C 
BRANCH  26  28
ATOM     28  C   UNL d   1      17.755  -0.402   3.143  0.00  0.00     0.030 A 
ATOM     29  C   UNL d   1      17.739  -1.779   2.919  0.00  0.00     0.032 A 
ATOM     30  C   UNL d   1      17.224  -2.638   3.888  0.00  0.00     0.038 A 
ATOM     31  C   UNL d   1      16.722  -2.120   5.083  0.00  0.00     0.103 A 
ATOM     32  C   UNL d   1      16.737  -0.744   5.307  0.00  0.00     0.038 A 
ATOM     33  C   UNL d   1      17.254   0.115   4.338  0.00  0.00     0.032 A 
BRANCH  31  34
ATOM     34  N   UNL d   1      16.195  -2.994   6.071  0.00  0.00    -0.116 N 
ATOM     35  O   UNL d   1      15.153  -2.661   6.685  0.00  0.00    -0.532 OA
ATOM     36  O   UNL d   1      16.787  -4.076   6.303  0.00  0.00    -0.532 OA
ENDBRANCH  31  34
ENDBRANCH  26  28
ENDBRANCH   3  21
TORSDOF 6
ENDMDL
MODEL 4
REMARK VINA RESULT:      -7.1     10.488     14.017
REMARK  6 active torsions:
REMARK  status: ('A' for Active; 'I' for Inactive)
REMARK    1  A    between atoms: N_8  and  C_18 
REMARK    2  A    between atoms: N_9  and  N_11 
REMARK       I    between atoms: N_9  and  C_22 
REMARK    3  A    between atoms: N_10  and  C_25 
REMARK       I    between atoms: N_11  and  C_27 
REMARK    4  A    between atoms: N_12  and  C_26 
REMARK       I    between atoms: N_12  and  C_27 
REMARK    5  A    between atoms: C_19  and  C_22 
REMARK    6  A    between atoms: C_28  and  C_33 
ROOT
ATOM      1  O   UNL d   1      11.877  -3.877   7.920  0.00  0.00    -0.267 OA
ATOM      2  N   UNL d   1      12.857  -5.681   9.006  0.00  0.00    -0.263 N 
ATOM      3  C   UNL d   1      12.591  -4.875   7.917  0.00  0.00     0.260 C 
ATOM      4  H   UNL d   1      13.454  -6.501   8.979  0.00  0.00     0.190 HD
ENDROOT
BRANCH   2   5
ATOM      5  N   UNL d   1      12.291  -5.368  10.217  0.00  0.00    -0.248 N 
ATOM      6  C   UNL d   1      12.986  -5.664  11.390  0.00  0.00     0.339 C 
ATOM      7  O   UNL d   1      14.093  -6.197  11.400  0.00  0.00    -0.245 OA
ATOM      8  N   UNL d   1      12.242  -5.266  12.504  0.00  0.00    -0.308 N 
ATOM      9  H   UNL d   1      11.340  -4.837  12.318  0.00  0.00     0.170 HD
ATOM     10  H   UNL d   1      11.381  -4.923  10.202  0.00  0.00     0.192 HD
BRANCH   8  11
ATOM     11  C   UNL d   1      12.590  -5.388  13.870  0.00  0.00     0.037 A 
ATOM     12  C   UNL d   1      12.904  -4.252  14.614  0.00  0.00     0.045 A 
ATOM     13  C   UNL d   1      13.247  -4.373  15.961  0.00  0.00     0.050 A 
ATOM     14  C   UNL d   1      13.276  -5.630  16.563  0.00  0.00     0.016 A 
ATOM     15  C   UNL d   1      12.960  -6.767  15.819  0.00  0.00     0.003 A 
ATOM     16  C   UNL d   1      12.618  -6.646  14.472  0.00  0.00     0.029 A 
BRANCH  13  17
ATOM     17  C   UNL d   1      13.584  -3.157  16.756  0.00  0.00     0.417 C 
ATOM     18  F   UNL d   1      13.401  -1.987  16.074  0.00  0.00    -0.166 F 
ATOM     19  F   UNL d   1      14.883  -3.122  17.179  0.00  0.00    -0.166 F 
ATOM     20  F   UNL d   1      12.829  -3.043  17.888  0.00  0.00    -0.166 F 
ENDBRANCH  13  17
ENDBRANCH   8  11
ENDBRANCH   2   5
BRANCH   3  21
ATOM     21  C   UNL d   1      13.285  -5.363   6.699  0.00  0.00     0.078 C 
ATOM     22  C   UNL d   1      14.513  -4.919   6.397  0.00  0.00    -0.071 C 
ATOM     23  C   UNL d   1      15.273  -5.371   5.180  0.00  0.00     0.054 C 
ATOM     24  C   UNL d   1      15.248  -3.909   7.232  0.00  0.00     0.054 C 
ATOM     25  C   UNL d   1      15.708  -4.168   4.341  0.00  0.00     0.127 C 
ATOM     26  N   UNL d   1      16.406  -3.174   5.176  0.00  0.00    -0.380 N 
ATOM     27  C   UNL d   1      15.692  -2.718   6.378  0.00  0.00     0.127 C 
BRANCH  26  28
ATOM     28  C   UNL d   1      17.300  -2.310   4.536  0.00  0.00     0.030 A 
ATOM     29  C   UNL d   1      17.877  -2.678   3.320  0.00  0.00     0.032 A 
ATOM     30  C   UNL d   1      18.768  -1.816   2.681  0.00  0.00     0.038 A 
ATOM     31  C   UNL d   1      19.084  -0.585   3.259  0.00  0.00     0.103 A 
ATOM     32  C   UNL d   1      18.508  -0.218   4.474  0.00  0.00     0.038 A 
ATOM     33  C   UNL d   1      17.616  -1.080   5.113  0.00  0.00     0.032 A 
BRANCH  31  34
ATOM     34  N   UNL d   1      19.992   0.292   2.609  0.00  0.00    -0.116 N 
ATOM     35  O   UNL d   1      20.171   1.441   3.081  0.00  0.00    -0.532 OA
ATOM     36  O   UNL d   1      20.591  -0.105   1.580  0.00  0.00    -0.532 OA
ENDBRANCH  31  34
ENDBRANCH  26  28
ENDBRANCH   3  21
TORSDOF 6
ENDMDL
MODEL 5
REMARK VINA RESULT:      -7.1     13.052     14.766
REMARK  6 active torsions:
REMARK  status: ('A' for Active; 'I' for Inactive)
REMARK    1  A    between atoms: N_8  and  C_18 
REMARK    2  A    between atoms: N_9  and  N_11 
REMARK       I    between atoms: N_9  and  C_22 
REMARK    3  A    between atoms: N_10  and  C_25 
REMARK       I    between atoms: N_11  and  C_27 
REMARK    4  A    between atoms: N_12  and  C_26 
REMARK       I    between atoms: N_12  and  C_27 
REMARK    5  A    between atoms: C_19  and  C_22 
REMARK    6  A    between atoms: C_28  and  C_33 
ROOT
ATOM      1  O   UNL d   1      19.682   5.306  -2.552  0.00  0.00    -0.267 OA
ATOM      2  N   UNL d   1      18.324   5.518  -0.680  0.00  0.00    -0.263 N 
ATOM      3  C   UNL d   1      18.677   5.739  -1.996  0.00  0.00     0.260 C 
ATOM      4  H   UNL d   1      17.485   5.885  -0.243  0.00  0.00     0.190 HD
ENDROOT
BRANCH   2   5
ATOM      5  N   UNL d   1      19.145   4.750   0.107  0.00  0.00    -0.248 N 
ATOM      6  C   UNL d   1      18.793   3.426   0.371  0.00  0.00     0.339 C 
ATOM      7  O   UNL d   1      17.772   2.901  -0.069  0.00  0.00    -0.245 OA
ATOM      8  N   UNL d   1      19.756   2.823   1.184  0.00  0.00    -0.308 N 
ATOM      9  H   UNL d   1      20.545   3.403   1.459  0.00  0.00     0.170 HD
ATOM     10  H   UNL d   1      19.988   5.186   0.462  0.00  0.00     0.192 HD
BRANCH   8  11
ATOM     11  C   UNL d   1      19.772   1.497   1.675  0.00  0.00     0.037 A 
ATOM     12  C   UNL d   1      19.153   1.194   2.887  0.00  0.00     0.045 A 
ATOM     13  C   UNL d   1      19.169  -0.114   3.371  0.00  0.00     0.050 A 
ATOM     14  C   UNL d   1      19.804  -1.119   2.643  0.00  0.00     0.016 A 
ATOM     15  C   UNL d   1      20.422  -0.817   1.429  0.00  0.00     0.003 A 
ATOM     16  C   UNL d   1      20.406   0.491   0.946  0.00  0.00     0.029 A 
BRANCH  13  17
ATOM     17  C   UNL d   1      18.507  -0.437   4.668  0.00  0.00     0.417 C 
ATOM     18  F   UNL d   1      17.526   0.448   5.018  0.00  0.00    -0.166 F 
ATOM     19  F   UNL d   1      19.366  -0.455   5.731  0.00  0.00    -0.166 F 
ATOM     20  F   UNL d   1      17.909  -1.664   4.662  0.00  0.00    -0.166 F 
ENDBRANCH  13  17
ENDBRANCH   8  11
ENDBRANCH   2   5
BRANCH   3  21
ATOM     21  C   UNL d   1      17.675   6.586  -2.692  0.00  0.00     0.078 C 
ATOM     22  C   UNL d   1      17.805   7.920  -2.697  0.00  0.00    -0.071 C 
ATOM     23  C   UNL d   1      16.829   8.837  -3.380  0.00  0.00     0.054 C 
ATOM     24  C   UNL d   1      18.928   8.637  -2.002  0.00  0.00     0.054 C 
ATOM     25  C   UNL d   1      16.297   9.883  -2.400  0.00  0.00     0.127 C 
ATOM     26  N   UNL d   1      17.407  10.562  -1.708  0.00  0.00    -0.380 N 
ATOM     27  C   UNL d   1      18.384   9.693  -1.035  0.00  0.00     0.127 C 
BRANCH  26  28
ATOM     28  C   UNL d   1      17.163  11.844  -1.203  0.00  0.00     0.030 A 
ATOM     29  C   UNL d   1      17.221  12.075   0.172  0.00  0.00     0.032 A 
ATOM     30  C   UNL d   1      16.979  13.353   0.676  0.00  0.00     0.038 A 
ATOM     31  C   UNL d   1      16.677  14.400  -0.196  0.00  0.00     0.103 A 
ATOM     32  C   UNL d   1      16.618  14.169  -1.569  0.00  0.00     0.038 A 
ATOM     33  C   UNL d   1      16.861  12.892  -2.073  0.00  0.00     0.032 A 
BRANCH  31  34
ATOM     34  N   UNL d   1      16.429  15.701   0.317  0.00  0.00    -0.116 N 
ATOM     35  O   UNL d   1      16.111  15.829   1.524  0.00  0.00    -0.532 OA
ATOM     36  O   UNL d   1      16.533  16.688  -0.452  0.00  0.00    -0.532 OA
ENDBRANCH  31  34
ENDBRANCH  26  28
ENDBRANCH   3  21
TORSDOF 6
ENDMDL
MODEL 6
REMARK VINA RESULT:      -7.1     13.908     17.668
REMARK  6 active torsions:
REMARK  status: ('A' for Active; 'I' for Inactive)
REMARK    1  A    between atoms: N_8  and  C_18 
REMARK    2  A    between atoms: N_9  and  N_11 
REMARK       I    between atoms: N_9  and  C_22 
REMARK    3  A    between atoms: N_10  and  C_25 
REMARK       I    between atoms: N_11  and  C_27 
REMARK    4  A    between atoms: N_12  and  C_26 
REMARK       I    between atoms: N_12  and  C_27 
REMARK    5  A    between atoms: C_19  and  C_22 
REMARK    6  A    between atoms: C_28  and  C_33 
ROOT
ATOM      1  O   UNL d   1      17.127   8.475  -1.866  0.00  0.00    -0.267 OA
ATOM      2  N   UNL d   1      18.519   9.359  -0.231  0.00  0.00    -0.263 N 
ATOM      3  C   UNL d   1      18.168   8.458  -1.215  0.00  0.00     0.260 C 
ATOM      4  H   UNL d   1      19.388   9.326   0.293  0.00  0.00     0.190 HD
ENDROOT
BRANCH   2   5
ATOM      5  N   UNL d   1      17.653  10.380   0.074  0.00  0.00    -0.248 N 
ATOM      6  C   UNL d   1      17.732  11.575  -0.641  0.00  0.00     0.339 C 
ATOM      7  O   UNL d   1      18.545  11.769  -1.542  0.00  0.00    -0.245 OA
ATOM      8  N   UNL d   1      16.769  12.477  -0.180  0.00  0.00    -0.308 N 
ATOM      9  H   UNL d   1      16.171  12.155   0.577  0.00  0.00     0.170 HD
ATOM     10  H   UNL d   1      16.981  10.212   0.814  0.00  0.00     0.192 HD
BRANCH   8  11
ATOM     11  C   UNL d   1      16.519  13.792  -0.638  0.00  0.00     0.037 A 
ATOM     12  C   UNL d   1      16.570  14.863   0.253  0.00  0.00     0.045 A 
ATOM     13  C   UNL d   1      16.324  16.159  -0.200  0.00  0.00     0.050 A 
ATOM     14  C   UNL d   1      16.028  16.384  -1.543  0.00  0.00     0.016 A 
ATOM     15  C   UNL d   1      15.977  15.313  -2.435  0.00  0.00     0.003 A 
ATOM     16  C   UNL d   1      16.223  14.017  -1.983  0.00  0.00     0.029 A 
BRANCH  13  17
ATOM     17  C   UNL d   1      16.378  17.305   0.754  0.00  0.00     0.417 C 
ATOM     18  F   UNL d   1      17.483  18.094   0.601  0.00  0.00    -0.166 F 
ATOM     19  F   UNL d   1      16.393  16.924   2.066  0.00  0.00    -0.166 F 
ATOM     20  F   UNL d   1      15.309  18.143   0.630  0.00  0.00    -0.166 F 
ENDBRANCH  13  17
ENDBRANCH   8  11
ENDBRANCH   2   5
BRANCH   3  21
ATOM     21  C   UNL d   1      19.220   7.428  -1.409  0.00  0.00     0.078 C 
ATOM     22  C   UNL d   1      18.907   6.125  -1.368  0.00  0.00    -0.071 C 
ATOM     23  C   UNL d   1      19.922   5.032  -1.556  0.00  0.00     0.054 C 
ATOM     24  C   UNL d   1      17.514   5.625  -1.109  0.00  0.00     0.054 C 
ATOM     25  C   UNL d   1      19.891   4.062  -0.374  0.00  0.00     0.127 C 
ATOM     26  N   UNL d   1      18.517   3.596  -0.116  0.00  0.00    -0.380 N 
ATOM     27  C   UNL d   1      17.499   4.642   0.065  0.00  0.00     0.127 C 
BRANCH  26  28
ATOM     28  C   UNL d   1      18.365   2.367   0.534  0.00  0.00     0.030 A 
ATOM     29  C   UNL d   1      17.592   2.281   1.693  0.00  0.00     0.032 A 
ATOM     30  C   UNL d   1      17.440   1.056   2.341  0.00  0.00     0.038 A 
ATOM     31  C   UNL d   1      18.061  -0.085   1.831  0.00  0.00     0.103 A 
ATOM     32  C   UNL d   1      18.833   0.000   0.673  0.00  0.00     0.038 A 
ATOM     33  C   UNL d   1      18.985   1.226   0.025  0.00  0.00     0.032 A 
BRANCH  31  34
ATOM     34  N   UNL d   1      17.907  -1.332   2.491  0.00  0.00    -0.116 N 
ATOM     35  O   UNL d   1      16.751  -1.745   2.751  0.00  0.00    -0.532 OA
ATOM     36  O   UNL d   1      18.932  -1.989   2.797  0.00  0.00    -0.532 OA
ENDBRANCH  31  34
ENDBRANCH  26  28
ENDBRANCH   3  21
TORSDOF 6
ENDMDL
MODEL 7
REMARK VINA RESULT:      -7.1      6.762      9.204
REMARK  6 active torsions:
REMARK  status: ('A' for Active; 'I' for Inactive)
REMARK    1  A    between atoms: N_8  and  C_18 
REMARK    2  A    between atoms: N_9  and  N_11 
REMARK       I    between atoms: N_9  and  C_22 
REMARK    3  A    between atoms: N_10  and  C_25 
REMARK       I    between atoms: N_11  and  C_27 
REMARK    4  A    between atoms: N_12  and  C_26 
REMARK       I    between atoms: N_12  and  C_27 
REMARK    5  A    between atoms: C_19  and  C_22 
REMARK    6  A    between atoms: C_28  and  C_33 
ROOT
ATOM      1  O   UNL d   1       9.828  -2.891   9.482  0.00  0.00    -0.267 OA
ATOM      2  N   UNL d   1      12.014  -3.094  10.239  0.00  0.00    -0.263 N 
ATOM      3  C   UNL d   1      11.033  -2.698   9.352  0.00  0.00     0.260 C 
ATOM      4  H   UNL d   1      13.005  -2.921  10.111  0.00  0.00     0.190 HD
ENDROOT
BRANCH   2   5
ATOM      5  N   UNL d   1      11.646  -3.765  11.379  0.00  0.00    -0.248 N 
ATOM      6  C   UNL d   1      12.622  -4.102  12.316  0.00  0.00     0.339 C 
ATOM      7  O   UNL d   1      13.812  -3.827  12.176  0.00  0.00    -0.245 OA
ATOM      8  N   UNL d   1      12.044  -4.774  13.396  0.00  0.00    -0.308 N 
ATOM      9  H   UNL d   1      11.038  -4.920  13.354  0.00  0.00     0.170 HD
ATOM     10  H   UNL d   1      10.662  -3.983  11.491  0.00  0.00     0.192 HD
BRANCH   8  11
ATOM     11  C   UNL d   1      12.686  -5.282  14.549  0.00  0.00     0.037 A 
ATOM     12  C   UNL d   1      13.179  -4.407  15.516  0.00  0.00     0.045 A 
ATOM     13  C   UNL d   1      13.812  -4.909  16.653  0.00  0.00     0.050 A 
ATOM     14  C   UNL d   1      13.953  -6.286  16.822  0.00  0.00     0.016 A 
ATOM     15  C   UNL d   1      13.459  -7.162  15.856  0.00  0.00     0.003 A 
ATOM     16  C   UNL d   1      12.826  -6.660  14.719  0.00  0.00     0.029 A 
BRANCH  13  17
ATOM     17  C   UNL d   1      14.339  -3.972  17.687  0.00  0.00     0.417 C 
ATOM     18  F   UNL d   1      13.501  -3.804  18.753  0.00  0.00    -0.166 F 
ATOM     19  F   UNL d   1      14.572  -2.711  17.215  0.00  0.00    -0.166 F 
ATOM     20  F   UNL d   1      15.526  -4.388  18.217  0.00  0.00    -0.166 F 
ENDBRANCH  13  17
ENDBRANCH   8  11
ENDBRANCH   2   5
BRANCH   3  21
ATOM     21  C   UNL d   1      11.612  -1.989   8.184  0.00  0.00     0.078 C 
ATOM     22  C   UNL d   1      11.713  -0.652   8.186  0.00  0.00    -0.071 C 
ATOM     23  C   UNL d   1      12.289   0.129   7.038  0.00  0.00     0.054 C 
ATOM     24  C   UNL d   1      11.241   0.204   9.328  0.00  0.00     0.054 C 
ATOM     25  C   UNL d   1      11.299   1.194   6.562  0.00  0.00     0.127 C 
ATOM     26  N   UNL d   1      10.826   2.010   7.694  0.00  0.00    -0.380 N 
ATOM     27  C   UNL d   1      10.264   1.275   8.837  0.00  0.00     0.127 C 
BRANCH  26  28
ATOM     28  C   UNL d   1      10.363   3.300   7.409  0.00  0.00     0.030 A 
ATOM     29  C   UNL d   1      10.553   4.329   8.331  0.00  0.00     0.032 A 
ATOM     30  C   UNL d   1      10.093   5.614   8.048  0.00  0.00     0.038 A 
ATOM     31  C   UNL d   1       9.441   5.870   6.840  0.00  0.00     0.103 A 
ATOM     32  C   UNL d   1       9.250   4.842   5.919  0.00  0.00     0.038 A 
ATOM     33  C   UNL d   1       9.712   3.557   6.202  0.00  0.00     0.032 A 
BRANCH  31  34
ATOM     34  N   UNL d   1       8.970   7.178   6.551  0.00  0.00    -0.116 N 
ATOM     35  O   UNL d   1       7.817   7.506   6.922  0.00  0.00    -0.532 OA
ATOM     36  O   UNL d   1       9.720   7.972   5.932  0.00  0.00    -0.532 OA
ENDBRANCH  31  34
ENDBRANCH  26  28
ENDBRANCH   3  21
TORSDOF 6
ENDMDL
MODEL 8
REMARK VINA RESULT:      -7.0     11.158     14.688
REMARK  6 active torsions:
REMARK  status: ('A' for Active; 'I' for Inactive)
REMARK    1  A    between atoms: N_8  and  C_18 
REMARK    2  A    between atoms: N_9  and  N_11 
REMARK       I    between atoms: N_9  and  C_22 
REMARK    3  A    between atoms: N_10  and  C_25 
REMARK       I    between atoms: N_11  and  C_27 
REMARK    4  A    between atoms: N_12  and  C_26 
REMARK       I    between atoms: N_12  and  C_27 
REMARK    5  A    between atoms: C_19  and  C_22 
REMARK    6  A    between atoms: C_28  and  C_33 
ROOT
ATOM      1  O   UNL d   1      19.926   3.081   2.081  0.00  0.00    -0.267 OA
ATOM      2  N   UNL d   1      18.394   3.354   0.358  0.00  0.00    -0.263 N 
ATOM      3  C   UNL d   1      19.179   2.620   1.224  0.00  0.00     0.260 C 
ATOM      4  H   UNL d   1      17.781   2.949  -0.341  0.00  0.00     0.190 HD
ENDROOT
BRANCH   2   5
ATOM      5  N   UNL d   1      18.425   4.724   0.434  0.00  0.00    -0.248 N 
ATOM      6  C   UNL d   1      18.719   5.463  -0.712  0.00  0.00     0.339 C 
ATOM      7  O   UNL d   1      18.954   4.948  -1.803  0.00  0.00    -0.245 OA
ATOM      8  N   UNL d   1      18.699   6.830  -0.424  0.00  0.00    -0.308 N 
ATOM      9  H   UNL d   1      18.484   7.088   0.536  0.00  0.00     0.170 HD
ATOM     10  H   UNL d   1      18.224   5.143   1.335  0.00  0.00     0.192 HD
BRANCH   8  11
ATOM     11  C   UNL d   1      18.943   7.908  -1.306  0.00  0.00     0.037 A 
ATOM     12  C   UNL d   1      18.721   9.219  -0.884  0.00  0.00     0.045 A 
ATOM     13  C   UNL d   1      18.961  10.282  -1.755  0.00  0.00     0.050 A 
ATOM     14  C   UNL d   1      19.424  10.034  -3.047  0.00  0.00     0.016 A 
ATOM     15  C   UNL d   1      19.648   8.723  -3.468  0.00  0.00     0.003 A 
ATOM     16  C   UNL d   1      19.407   7.660  -2.598  0.00  0.00     0.029 A 
BRANCH  13  17
ATOM     17  C   UNL d   1      18.723  11.683  -1.304  0.00  0.00     0.417 C 
ATOM     18  F   UNL d   1      18.018  11.771  -0.137  0.00  0.00    -0.166 F 
ATOM     19  F   UNL d   1      18.018  12.434  -2.202  0.00  0.00    -0.166 F 
ATOM     20  F   UNL d   1      19.882  12.369  -1.085  0.00  0.00    -0.166 F 
ENDBRANCH  13  17
ENDBRANCH   8  11
ENDBRANCH   2   5
BRANCH   3  21
ATOM     21  C   UNL d   1      19.017   1.161   1.000  0.00  0.00     0.078 C 
ATOM     22  C   UNL d   1      18.045   0.485   1.628  0.00  0.00    -0.071 C 
ATOM     23  C   UNL d   1      17.824  -0.991   1.447  0.00  0.00     0.054 C 
ATOM     24  C   UNL d   1      17.090   1.128   2.594  0.00  0.00     0.054 C 
ATOM     25  C   UNL d   1      17.836  -1.706   2.799  0.00  0.00     0.127 C 
ATOM     26  N   UNL d   1      16.914  -1.052   3.744  0.00  0.00    -0.380 N 
ATOM     27  C   UNL d   1      17.099   0.395   3.938  0.00  0.00     0.127 C 
BRANCH  26  28
ATOM     28  C   UNL d   1      16.407  -1.828   4.792  0.00  0.00     0.030 A 
ATOM     29  C   UNL d   1      15.397  -1.321   5.611  0.00  0.00     0.032 A 
ATOM     30  C   UNL d   1      14.891  -2.095   6.655  0.00  0.00     0.038 A 
ATOM     31  C   UNL d   1      15.397  -3.376   6.882  0.00  0.00     0.103 A 
ATOM     32  C   UNL d   1      16.407  -3.882   6.065  0.00  0.00     0.038 A 
ATOM     33  C   UNL d   1      16.912  -3.108   5.020  0.00  0.00     0.032 A 
BRANCH  31  34
ATOM     34  N   UNL d   1      14.884  -4.163   7.947  0.00  0.00    -0.116 N 
ATOM     35  O   UNL d   1      15.176  -5.382   7.998  0.00  0.00    -0.532 OA
ATOM     36  O   UNL d   1      14.149  -3.618   8.807  0.00  0.00    -0.532 OA
ENDBRANCH  31  34
ENDBRANCH  26  28
ENDBRANCH   3  21
TORSDOF 6
ENDMDL
MODEL 9
REMARK VINA RESULT:      -7.0      8.314     13.493
REMARK  6 active torsions:
REMARK  status: ('A' for Active; 'I' for Inactive)
REMARK    1  A    between atoms: N_8  and  C_18 
REMARK    2  A    between atoms: N_9  and  N_11 
REMARK       I    between atoms: N_9  and  C_22 
REMARK    3  A    between atoms: N_10  and  C_25 
REMARK       I    between atoms: N_11  and  C_27 
REMARK    4  A    between atoms: N_12  and  C_26 
REMARK       I    between atoms: N_12  and  C_27 
REMARK    5  A    between atoms: C_19  and  C_22 
REMARK    6  A    between atoms: C_28  and  C_33 
ROOT
ATOM      1  O   UNL d   1       3.642   1.648  13.282  0.00  0.00    -0.267 OA
ATOM      2  N   UNL d   1       4.188   3.008  15.084  0.00  0.00    -0.263 N 
ATOM      3  C   UNL d   1       4.470   2.180  14.015  0.00  0.00     0.260 C 
ATOM      4  H   UNL d   1       4.891   3.439  15.674  0.00  0.00     0.190 HD
ENDROOT
BRANCH   2   5
ATOM      5  N   UNL d   1       2.877   3.284  15.382  0.00  0.00    -0.248 N 
ATOM      6  C   UNL d   1       2.320   4.489  14.955  0.00  0.00     0.339 C 
ATOM      7  O   UNL d   1       2.948   5.331  14.317  0.00  0.00    -0.245 OA
ATOM      8  N   UNL d   1       0.985   4.573  15.356  0.00  0.00    -0.308 N 
ATOM      9  H   UNL d   1       0.618   3.782  15.880  0.00  0.00     0.170 HD
ATOM     10  H   UNL d   1       2.363   2.582  15.903  0.00  0.00     0.192 HD
BRANCH   8  11
ATOM     11  C   UNL d   1       0.072   5.628  15.124  0.00  0.00     0.037 A 
ATOM     12  C   UNL d   1       0.056   6.737  15.970  0.00  0.00     0.045 A 
ATOM     13  C   UNL d   1      -0.845   7.777  15.740  0.00  0.00     0.050 A 
ATOM     14  C   UNL d   1      -1.729   7.708  14.665  0.00  0.00     0.016 A 
ATOM     15  C   UNL d   1      -1.714   6.600  13.818  0.00  0.00     0.003 A 
ATOM     16  C   UNL d   1      -0.813   5.560  14.048  0.00  0.00     0.029 A 
BRANCH  13  17
ATOM     17  C   UNL d   1      -0.861   8.962  16.645  0.00  0.00     0.417 C 
ATOM     18  F   UNL d   1      -0.652  10.148  15.999  0.00  0.00    -0.166 F 
ATOM     19  F   UNL d   1       0.092   8.917  17.623  0.00  0.00    -0.166 F 
ATOM     20  F   UNL d   1      -2.050   9.106  17.301  0.00  0.00    -0.166 F 
ENDBRANCH  13  17
ENDBRANCH   8  11
ENDBRANCH   2   5
BRANCH   3  21
ATOM     21  C   UNL d   1       5.933   1.997  13.842  0.00  0.00     0.078 C 
ATOM     22  C   UNL d   1       6.681   2.980  13.320  0.00  0.00    -0.071 C 
ATOM     23  C   UNL d   1       8.165   2.861  13.118  0.00  0.00     0.054 C 
ATOM     24  C   UNL d   1       6.107   4.292  12.865  0.00  0.00     0.054 C 
ATOM     25  C   UNL d   1       8.534   3.153  11.662  0.00  0.00     0.127 C 
ATOM     26  N   UNL d   1       7.947   4.430  11.220  0.00  0.00    -0.380 N 
ATOM     27  C   UNL d   1       6.497   4.580  11.413  0.00  0.00     0.127 C 
BRANCH  26  28
ATOM     28  C   UNL d   1       8.575   5.096  10.162  0.00  0.00     0.030 A 
ATOM     29  C   UNL d   1       8.295   6.441   9.920  0.00  0.00     0.032 A 
ATOM     30  C   UNL d   1       8.921   7.106   8.866  0.00  0.00     0.038 A 
ATOM     31  C   UNL d   1       9.826   6.423   8.051  0.00  0.00     0.103 A 
ATOM     32  C   UNL d   1      10.105   5.079   8.292  0.00  0.00     0.038 A 
ATOM     33  C   UNL d   1       9.479   4.415   9.347  0.00  0.00     0.032 A 
BRANCH  31  34
ATOM     34  N   UNL d   1      10.462   7.099   6.977  0.00  0.00    -0.116 N 
ATOM     35  O   UNL d   1      11.703   6.980   6.833  0.00  0.00    -0.532 OA
ATOM     36  O   UNL d   1       9.766   7.798   6.200  0.00  0.00    -0.532 OA
ENDBRANCH  31  34
ENDBRANCH  26  28
ENDBRANCH   3  21
TORSDOF 6
ENDMDL
