MODEL 1
REMARK VINA RESULT:      -6.8      0.000      0.000
REMARK  1 active torsions:
REMARK  status: ('A' for Active; 'I' for Inactive)
REMARK    1  A    between atoms: O_1  and  C_13 
ROOT
ATOM      1  O   UNL d   1       1.504   6.577  11.850  0.00  0.00    -0.298 OA
ATOM      2  C   UNL d   1       7.233   5.894   9.067  0.00  0.00    -0.005 C 
ATOM      3  C   UNL d   1       6.874   6.083  10.575  0.00  0.00    -0.002 C 
ATOM      4  C   UNL d   1       8.746   6.071   8.901  0.00  0.00     0.001 C 
ATOM      5  C   UNL d   1       9.561   5.058   9.728  0.00  0.00    -0.014 C 
ATOM      6  C   UNL d   1       5.326   5.973  10.841  0.00  0.00    -0.036 C 
ATOM      7  C   UNL d   1       4.585   6.971   9.895  0.00  0.00     0.001 C 
ATOM      8  C   UNL d   1       7.744   5.184  11.497  0.00  0.00     0.007 C 
ATOM      9  C   UNL d   1       9.252   5.298  11.212  0.00  0.00     0.012 C 
ATOM     10  C   UNL d   1       6.458   6.888   8.193  0.00  0.00     0.006 C 
ATOM     11  C   UNL d   1       9.360   5.967   7.506  0.00  0.00     0.008 C 
ATOM     12  C   UNL d   1      10.981   5.464   9.292  0.00  0.00     0.126 C 
ATOM     13  C   UNL d   1       4.953   6.789   8.416  0.00  0.00     0.006 C 
ATOM     14  C   UNL d   1      10.852   5.705   7.775  0.00  0.00     0.033 C 
ATOM     15  C   UNL d   1       5.014   6.366  12.321  0.00  0.00     0.017 C 
ATOM     16  C   UNL d   1       9.293   3.572   9.376  0.00  0.00     0.018 C 
ATOM     17  C   UNL d   1       4.831   4.520  10.614  0.00  0.00     0.016 C 
ATOM     18  C   UNL d   1       3.058   6.919  10.064  0.00  0.00     0.083 C 
ATOM     19  C   UNL d   1       3.720   7.150  12.542  0.00  0.00     0.079 C 
ATOM     20  C   UNL d   1       2.662   6.829  11.519  0.00  0.00     0.127 C 
ENDROOT
BRANCH  12  21
ATOM     21  O   UNL d   1      11.953   4.477   9.585  0.00  0.00    -0.395 OA
ATOM     22  H   UNL d   1      12.331   4.149   8.753  0.00  0.00     0.210 HD
ENDBRANCH  12  21
TORSDOF 1
ENDMDL
MODEL 2
REMARK VINA RESULT:      -6.4      2.011      6.461
REMARK  1 active torsions:
REMARK  status: ('A' for Active; 'I' for Inactive)
REMARK    1  A    between atoms: O_1  and  C_13 
ROOT
ATOM      1  O   UNL d   1      10.731   5.940   6.722  0.00  0.00    -0.298 OA
ATOM      2  C   UNL d   1       7.019   3.981  11.561  0.00  0.00    -0.005 C 
ATOM      3  C   UNL d   1       7.148   5.396  10.913  0.00  0.00    -0.002 C 
ATOM      4  C   UNL d   1       6.217   4.111  12.860  0.00  0.00     0.001 C 
ATOM      5  C   UNL d   1       4.801   4.675  12.635  0.00  0.00    -0.014 C 
ATOM      6  C   UNL d   1       8.007   5.376   9.594  0.00  0.00    -0.036 C 
ATOM      7  C   UNL d   1       9.383   4.707   9.905  0.00  0.00     0.001 C 
ATOM      8  C   UNL d   1       5.767   6.095  10.764  0.00  0.00     0.007 C 
ATOM      9  C   UNL d   1       4.939   6.093  12.062  0.00  0.00     0.012 C 
ATOM     10  C   UNL d   1       8.403   3.373  11.820  0.00  0.00     0.006 C 
ATOM     11  C   UNL d   1       5.972   2.867  13.712  0.00  0.00     0.008 C 
ATOM     12  C   UNL d   1       4.274   4.614  14.081  0.00  0.00     0.126 C 
ATOM     13  C   UNL d   1       9.249   3.323  10.554  0.00  0.00     0.006 C 
ATOM     14  C   UNL d   1       4.782   3.257  14.607  0.00  0.00     0.033 C 
ATOM     15  C   UNL d   1       8.263   6.839   9.107  0.00  0.00     0.017 C 
ATOM     16  C   UNL d   1       3.907   3.823  11.699  0.00  0.00     0.018 C 
ATOM     17  C   UNL d   1       7.262   4.616   8.465  0.00  0.00     0.016 C 
ATOM     18  C   UNL d   1      10.287   4.619   8.666  0.00  0.00     0.083 C 
ATOM     19  C   UNL d   1       9.642   7.106   8.503  0.00  0.00     0.079 C 
ATOM     20  C   UNL d   1      10.237   5.888   7.848  0.00  0.00     0.127 C 
ENDROOT
BRANCH  12  21
ATOM     21  O   UNL d   1       2.864   4.712  14.160  0.00  0.00    -0.395 OA
ATOM     22  H   UNL d   1       2.472   4.228  13.414  0.00  0.00     0.210 HD
ENDBRANCH  12  21
TORSDOF 1
ENDMDL
MODEL 3
REMARK VINA RESULT:      -6.2      2.095      2.774
REMARK  1 active torsions:
REMARK  status: ('A' for Active; 'I' for Inactive)
REMARK    1  A    between atoms: O_1  and  C_13 
ROOT
ATOM      1  O   UNL d   1       2.231   3.719  14.527  0.00  0.00    -0.298 OA
ATOM      2  C   UNL d   1       7.282   4.883  10.763  0.00  0.00    -0.005 C 
ATOM      3  C   UNL d   1       7.136   3.886  11.955  0.00  0.00    -0.002 C 
ATOM      4  C   UNL d   1       8.765   4.985  10.391  0.00  0.00     0.001 C 
ATOM      5  C   UNL d   1       9.370   3.632   9.971  0.00  0.00    -0.014 C 
ATOM      6  C   UNL d   1       5.647   3.754  12.449  0.00  0.00    -0.036 C 
ATOM      7  C   UNL d   1       5.097   5.182  12.763  0.00  0.00     0.001 C 
ATOM      8  C   UNL d   1       7.834   2.527  11.665  0.00  0.00     0.007 C 
ATOM      9  C   UNL d   1       9.284   2.680  11.172  0.00  0.00     0.012 C 
ATOM     10  C   UNL d   1       6.705   6.257  11.129  0.00  0.00     0.006 C 
ATOM     11  C   UNL d   1       9.188   5.928   9.266  0.00  0.00     0.008 C 
ATOM     12  C   UNL d   1      10.796   4.094   9.617  0.00  0.00     0.126 C 
ATOM     13  C   UNL d   1       5.256   6.161  11.592  0.00  0.00     0.006 C 
ATOM     14  C   UNL d   1      10.582   5.419   8.858  0.00  0.00     0.033 C 
ATOM     15  C   UNL d   1       5.597   2.903  13.759  0.00  0.00     0.017 C 
ATOM     16  C   UNL d   1       8.695   2.976   8.740  0.00  0.00     0.018 C 
ATOM     17  C   UNL d   1       4.774   3.045  11.380  0.00  0.00     0.016 C 
ATOM     18  C   UNL d   1       3.634   5.159  13.231  0.00  0.00     0.083 C 
ATOM     19  C   UNL d   1       4.577   3.353  14.805  0.00  0.00     0.079 C 
ATOM     20  C   UNL d   1       3.376   4.026  14.197  0.00  0.00     0.127 C 
ENDROOT
BRANCH  12  21
ATOM     21  O   UNL d   1      11.504   3.151   8.835  0.00  0.00    -0.395 OA
ATOM     22  H   UNL d   1      11.668   2.357   9.370  0.00  0.00     0.210 HD
ENDBRANCH  12  21
TORSDOF 1
ENDMDL
MODEL 4
REMARK VINA RESULT:      -6.2      1.317      6.607
REMARK  1 active torsions:
REMARK  status: ('A' for Active; 'I' for Inactive)
REMARK    1  A    between atoms: O_1  and  C_13 
ROOT
ATOM      1  O   UNL d   1      10.813   5.586   6.218  0.00  0.00    -0.298 OA
ATOM      2  C   UNL d   1       6.130   5.954  10.573  0.00  0.00    -0.005 C 
ATOM      3  C   UNL d   1       6.243   6.633   9.172  0.00  0.00    -0.002 C 
ATOM      4  C   UNL d   1       4.961   6.592  11.331  0.00  0.00     0.001 C 
ATOM      5  C   UNL d   1       3.615   6.430  10.600  0.00  0.00    -0.014 C 
ATOM      6  C   UNL d   1       7.456   6.080   8.334  0.00  0.00    -0.036 C 
ATOM      7  C   UNL d   1       8.755   6.207   9.193  0.00  0.00     0.001 C 
ATOM      8  C   UNL d   1       4.888   6.627   8.411  0.00  0.00     0.007 C 
ATOM      9  C   UNL d   1       3.714   7.159   9.253  0.00  0.00     0.012 C 
ATOM     10  C   UNL d   1       7.442   6.095  11.355  0.00  0.00     0.006 C 
ATOM     11  C   UNL d   1       4.652   6.127  12.753  0.00  0.00     0.008 C 
ATOM     12  C   UNL d   1       2.687   7.103  11.629  0.00  0.00     0.126 C 
ATOM     13  C   UNL d   1       8.631   5.549  10.574  0.00  0.00     0.006 C 
ATOM     14  C   UNL d   1       3.202   6.589  12.988  0.00  0.00     0.033 C 
ATOM     15  C   UNL d   1       7.634   6.932   7.036  0.00  0.00     0.017 C 
ATOM     16  C   UNL d   1       3.181   4.961  10.363  0.00  0.00     0.018 C 
ATOM     17  C   UNL d   1       7.208   4.608   7.914  0.00  0.00     0.016 C 
ATOM     18  C   UNL d   1       9.996   5.667   8.465  0.00  0.00     0.083 C 
ATOM     19  C   UNL d   1       9.077   7.185   6.599  0.00  0.00     0.079 C 
ATOM     20  C   UNL d   1      10.014   6.081   7.012  0.00  0.00     0.127 C 
ENDROOT
BRANCH  12  21
ATOM     21  O   UNL d   1       1.322   6.787  11.433  0.00  0.00    -0.395 OA
ATOM     22  H   UNL d   1       1.129   6.802  10.481  0.00  0.00     0.210 HD
ENDBRANCH  12  21
TORSDOF 1
ENDMDL
MODEL 5
REMARK VINA RESULT:      -6.1      2.101      3.061
REMARK  1 active torsions:
REMARK  status: ('A' for Active; 'I' for Inactive)
REMARK    1  A    between atoms: O_1  and  C_13 
ROOT
ATOM      1  O   UNL d   1       4.379   4.335  14.316  0.00  0.00    -0.298 OA
ATOM      2  C   UNL d   1       8.073   4.307   9.083  0.00  0.00    -0.005 C 
ATOM      3  C   UNL d   1       7.368   5.502   9.799  0.00  0.00    -0.002 C 
ATOM      4  C   UNL d   1       8.590   4.789   7.723  0.00  0.00     0.001 C 
ATOM      5  C   UNL d   1       9.597   5.949   7.843  0.00  0.00    -0.014 C 
ATOM      6  C   UNL d   1       6.753   5.091  11.188  0.00  0.00    -0.036 C 
ATOM      7  C   UNL d   1       5.820   3.856  10.975  0.00  0.00     0.001 C 
ATOM      8  C   UNL d   1       8.274   6.764   9.852  0.00  0.00     0.007 C 
ATOM      9  C   UNL d   1       8.875   7.142   8.485  0.00  0.00     0.012 C 
ATOM     10  C   UNL d   1       7.111   3.123   8.924  0.00  0.00     0.006 C 
ATOM     11  C   UNL d   1       9.297   3.798   6.800  0.00  0.00     0.008 C 
ATOM     12  C   UNL d   1       9.945   6.133   6.354  0.00  0.00     0.126 C 
ATOM     13  C   UNL d   1       6.516   2.691  10.259  0.00  0.00     0.006 C 
ATOM     14  C   UNL d   1      10.075   4.694   5.819  0.00  0.00     0.033 C 
ATOM     15  C   UNL d   1       5.897   6.268  11.758  0.00  0.00     0.017 C 
ATOM     16  C   UNL d   1      10.873   5.615   8.658  0.00  0.00     0.018 C 
ATOM     17  C   UNL d   1       7.874   4.771  12.212  0.00  0.00     0.016 C 
ATOM     18  C   UNL d   1       5.189   3.362  12.286  0.00  0.00     0.083 C 
ATOM     19  C   UNL d   1       4.620   5.865  12.495  0.00  0.00     0.079 C 
ATOM     20  C   UNL d   1       4.726   4.513  13.149  0.00  0.00     0.127 C 
ENDROOT
BRANCH  12  21
ATOM     21  O   UNL d   1      11.133   6.877   6.152  0.00  0.00    -0.395 OA
ATOM     22  H   UNL d   1      11.384   6.821   5.216  0.00  0.00     0.210 HD
ENDBRANCH  12  21
TORSDOF 1
ENDMDL
MODEL 6
REMARK VINA RESULT:      -5.9      1.407      6.631
REMARK  1 active torsions:
REMARK  status: ('A' for Active; 'I' for Inactive)
REMARK    1  A    between atoms: O_1  and  C_13 
ROOT
ATOM      1  O   UNL d   1      11.410   4.422   9.283  0.00  0.00    -0.298 OA
ATOM      2  C   UNL d   1       5.306   6.157  10.161  0.00  0.00    -0.005 C 
ATOM      3  C   UNL d   1       6.309   6.573   9.039  0.00  0.00    -0.002 C 
ATOM      4  C   UNL d   1       4.077   7.069  10.080  0.00  0.00     0.001 C 
ATOM      5  C   UNL d   1       3.355   6.979   8.722  0.00  0.00    -0.014 C 
ATOM      6  C   UNL d   1       7.635   5.725   9.075  0.00  0.00    -0.036 C 
ATOM      7  C   UNL d   1       8.241   5.808  10.512  0.00  0.00     0.001 C 
ATOM      8  C   UNL d   1       5.628   6.631   7.643  0.00  0.00     0.007 C 
ATOM      9  C   UNL d   1       4.327   7.455   7.634  0.00  0.00     0.012 C 
ATOM     10  C   UNL d   1       5.969   6.240  11.542  0.00  0.00     0.006 C 
ATOM     11  C   UNL d   1       2.950   6.893  11.095  0.00  0.00     0.008 C 
ATOM     12  C   UNL d   1       2.180   7.935   8.999  0.00  0.00     0.126 C 
ATOM     13  C   UNL d   1       7.246   5.411  11.611  0.00  0.00     0.006 C 
ATOM     14  C   UNL d   1       1.744   7.586  10.436  0.00  0.00     0.033 C 
ATOM     15  C   UNL d   1       8.669   6.317   8.064  0.00  0.00     0.017 C 
ATOM     16  C   UNL d   1       2.826   5.566   8.364  0.00  0.00     0.018 C 
ATOM     17  C   UNL d   1       7.357   4.253   8.673  0.00  0.00     0.016 C 
ATOM     18  C   UNL d   1       9.532   4.986  10.654  0.00  0.00     0.083 C 
ATOM     19  C   UNL d   1      10.130   6.290   8.515  0.00  0.00     0.079 C 
ATOM     20  C   UNL d   1      10.430   5.148   9.450  0.00  0.00     0.127 C 
ENDROOT
BRANCH  12  21
ATOM     21  O   UNL d   1       1.117   7.786   8.077  0.00  0.00    -0.395 OA
ATOM     22  H   UNL d   1       1.453   7.352   7.276  0.00  0.00     0.210 HD
ENDBRANCH  12  21
TORSDOF 1
ENDMDL
MODEL 7
REMARK VINA RESULT:      -5.9      9.770     12.011
REMARK  1 active torsions:
REMARK  status: ('A' for Active; 'I' for Inactive)
REMARK    1  A    between atoms: O_1  and  C_13 
ROOT
ATOM      1  O   UNL d   1      10.507  -3.955  11.514  0.00  0.00    -0.298 OA
ATOM      2  C   UNL d   1      14.329  -2.064   6.733  0.00  0.00    -0.005 C 
ATOM      3  C   UNL d   1      14.559  -3.163   7.817  0.00  0.00    -0.002 C 
ATOM      4  C   UNL d   1      15.655  -1.806   6.010  0.00  0.00     0.001 C 
ATOM      5  C   UNL d   1      16.213  -3.064   5.318  0.00  0.00    -0.014 C 
ATOM      6  C   UNL d   1      13.259  -3.461   8.655  0.00  0.00    -0.036 C 
ATOM      7  C   UNL d   1      12.723  -2.115   9.239  0.00  0.00     0.001 C 
ATOM      8  C   UNL d   1      15.239  -4.430   7.226  0.00  0.00     0.007 C 
ATOM      9  C   UNL d   1      16.500  -4.115   6.400  0.00  0.00     0.012 C 
ATOM     10  C   UNL d   1      13.783  -0.778   7.368  0.00  0.00     0.006 C 
ATOM     11  C   UNL d   1      15.714  -0.743   4.916  0.00  0.00     0.008 C 
ATOM     12  C   UNL d   1      17.467  -2.456   4.664  0.00  0.00     0.126 C 
ATOM     13  C   UNL d   1      12.513  -1.034   8.170  0.00  0.00     0.006 C 
ATOM     14  C   UNL d   1      16.983  -1.097   4.120  0.00  0.00     0.033 C 
ATOM     15  C   UNL d   1      13.603  -4.416   9.843  0.00  0.00     0.017 C 
ATOM     16  C   UNL d   1      15.283  -3.674   4.238  0.00  0.00     0.018 C 
ATOM     17  C   UNL d   1      12.185  -4.153   7.775  0.00  0.00     0.016 C 
ATOM     18  C   UNL d   1      11.435  -2.300  10.056  0.00  0.00     0.083 C 
ATOM     19  C   UNL d   1      12.864  -4.141  11.152  0.00  0.00     0.079 C 
ATOM     20  C   UNL d   1      11.506  -3.525  10.937  0.00  0.00     0.127 C 
ENDROOT
BRANCH  12  21
ATOM     21  O   UNL d   1      18.005  -3.269   3.638  0.00  0.00    -0.395 OA
ATOM     22  H   UNL d   1      17.613  -4.155   3.700  0.00  0.00     0.210 HD
ENDBRANCH  12  21
TORSDOF 1
ENDMDL
MODEL 8
REMARK VINA RESULT:      -5.7      2.026      6.793
REMARK  1 active torsions:
REMARK  status: ('A' for Active; 'I' for Inactive)
REMARK    1  A    between atoms: O_1  and  C_13 
ROOT
ATOM      1  O   UNL d   1      10.755   0.515   9.244  0.00  0.00    -0.298 OA
ATOM      2  C   UNL d   1       6.057   4.018  11.830  0.00  0.00    -0.005 C 
ATOM      3  C   UNL d   1       7.106   4.407  10.740  0.00  0.00    -0.002 C 
ATOM      4  C   UNL d   1       5.350   5.293  12.302  0.00  0.00     0.001 C 
ATOM      5  C   UNL d   1       4.619   6.029  11.162  0.00  0.00    -0.014 C 
ATOM      6  C   UNL d   1       7.927   3.165  10.229  0.00  0.00    -0.036 C 
ATOM      7  C   UNL d   1       8.552   2.438  11.462  0.00  0.00     0.001 C 
ATOM      8  C   UNL d   1       6.476   5.265   9.607  0.00  0.00     0.007 C 
ATOM      9  C   UNL d   1       5.668   6.466  10.130  0.00  0.00     0.012 C 
ATOM     10  C   UNL d   1       6.731   3.291  13.000  0.00  0.00     0.006 C 
ATOM     11  C   UNL d   1       4.290   5.195  13.398  0.00  0.00     0.008 C 
ATOM     12  C   UNL d   1       3.991   7.180  11.969  0.00  0.00     0.126 C 
ATOM     13  C   UNL d   1       7.518   2.072  12.535  0.00  0.00     0.006 C 
ATOM     14  C   UNL d   1       3.490   6.502  13.260  0.00  0.00     0.033 C 
ATOM     15  C   UNL d   1       9.085   3.644   9.295  0.00  0.00     0.017 C 
ATOM     16  C   UNL d   1       3.515   5.198  10.460  0.00  0.00     0.018 C 
ATOM     17  C   UNL d   1       7.020   2.203   9.416  0.00  0.00     0.016 C 
ATOM     18  C   UNL d   1       9.357   1.191  11.063  0.00  0.00     0.083 C 
ATOM     19  C   UNL d   1      10.399   2.873   9.416  0.00  0.00     0.079 C 
ATOM     20  C   UNL d   1      10.198   1.441   9.834  0.00  0.00     0.127 C 
ENDROOT
BRANCH  12  21
ATOM     21  O   UNL d   1       2.942   7.831  11.277  0.00  0.00    -0.395 OA
ATOM     22  H   UNL d   1       2.091   7.505  11.615  0.00  0.00     0.210 HD
ENDBRANCH  12  21
TORSDOF 1
ENDMDL
MODEL 9
REMARK VINA RESULT:      -5.5      2.210      3.595
REMARK  1 active torsions:
REMARK  status: ('A' for Active; 'I' for Inactive)
REMARK    1  A    between atoms: O_1  and  C_13 
ROOT
ATOM      1  O   UNL d   1       2.703   3.784  14.765  0.00  0.00    -0.298 OA
ATOM      2  C   UNL d   1       7.414   5.168  10.651  0.00  0.00    -0.005 C 
ATOM      3  C   UNL d   1       5.876   5.067  10.406  0.00  0.00    -0.002 C 
ATOM      4  C   UNL d   1       8.120   5.238   9.293  0.00  0.00     0.001 C 
ATOM      5  C   UNL d   1       7.679   6.451   8.451  0.00  0.00    -0.014 C 
ATOM      6  C   UNL d   1       5.063   4.935  11.748  0.00  0.00    -0.036 C 
ATOM      7  C   UNL d   1       5.642   3.737  12.567  0.00  0.00     0.001 C 
ATOM      8  C   UNL d   1       5.363   6.187   9.459  0.00  0.00     0.007 C 
ATOM      9  C   UNL d   1       6.179   6.307   8.159  0.00  0.00     0.012 C 
ATOM     10  C   UNL d   1       7.914   3.976  11.476  0.00  0.00     0.006 C 
ATOM     11  C   UNL d   1       9.645   5.311   9.248  0.00  0.00     0.008 C 
ATOM     12  C   UNL d   1       8.595   6.256   7.229  0.00  0.00     0.126 C 
ATOM     13  C   UNL d   1       7.157   3.836  12.791  0.00  0.00     0.006 C 
ATOM     14  C   UNL d   1       9.951   5.850   7.839  0.00  0.00     0.033 C 
ATOM     15  C   UNL d   1       3.561   4.640  11.430  0.00  0.00     0.017 C 
ATOM     16  C   UNL d   1       7.949   7.828   9.112  0.00  0.00     0.018 C 
ATOM     17  C   UNL d   1       5.132   6.252  12.565  0.00  0.00     0.016 C 
ATOM     18  C   UNL d   1       4.925   3.542  13.912  0.00  0.00     0.083 C 
ATOM     19  C   UNL d   1       2.858   3.671  12.381  0.00  0.00     0.079 C 
ATOM     20  C   UNL d   1       3.430   3.704  13.774  0.00  0.00     0.127 C 
ENDROOT
BRANCH  12  21
ATOM     21  O   UNL d   1       8.707   7.419   6.430  0.00  0.00    -0.395 OA
ATOM     22  H   UNL d   1       8.607   8.201   6.997  0.00  0.00     0.210 HD
ENDBRANCH  12  21
TORSDOF 1
ENDMDL
