MODEL 1
REMARK VINA RESULT:      -7.7      0.000      0.000
REMARK  6 active torsions:
REMARK  status: ('A' for Active; 'I' for Inactive)
REMARK    1  A    between atoms: N_8  and  C_18 
REMARK    2  A    between atoms: N_9  and  N_11 
REMARK       I    between atoms: N_9  and  C_22 
REMARK    3  A    between atoms: N_10  and  C_25 
REMARK       I    between atoms: N_11  and  C_27 
REMARK    4  A    between atoms: N_12  and  C_26 
REMARK       I    between atoms: N_12  and  C_27 
REMARK    5  A    between atoms: C_19  and  C_22 
REMARK    6  A    between atoms: C_28  and  C_33 
ROOT
ATOM      1  O   UNL d   1      11.899   4.746   9.426  0.00  0.00    -0.267 OA
ATOM      2  N   UNL d   1      10.385   3.249   8.498  0.00  0.00    -0.263 N 
ATOM      3  C   UNL d   1      10.816   4.496   8.906  0.00  0.00     0.260 C 
ATOM      4  H   UNL d   1       9.484   3.069   8.067  0.00  0.00     0.190 HD
ENDROOT
BRANCH   2   5
ATOM      5  N   UNL d   1      11.215   2.170   8.673  0.00  0.00    -0.248 N 
ATOM      6  C   UNL d   1      11.456   1.315   7.598  0.00  0.00     0.339 C 
ATOM      7  O   UNL d   1      10.959   1.477   6.485  0.00  0.00    -0.245 OA
ATOM      8  N   UNL d   1      12.322   0.288   7.983  0.00  0.00    -0.308 N 
ATOM      9  H   UNL d   1      12.643   0.303   8.948  0.00  0.00     0.170 HD
ATOM     10  H   UNL d   1      11.625   2.046   9.591  0.00  0.00     0.192 HD
BRANCH   8  11
ATOM     11  C   UNL d   1      12.811  -0.778   7.193  0.00  0.00     0.037 A 
ATOM     12  C   UNL d   1      14.143  -0.786   6.780  0.00  0.00     0.045 A 
ATOM     13  C   UNL d   1      14.625  -1.838   6.001  0.00  0.00     0.050 A 
ATOM     14  C   UNL d   1      13.776  -2.881   5.634  0.00  0.00     0.016 A 
ATOM     15  C   UNL d   1      12.443  -2.873   6.048  0.00  0.00     0.003 A 
ATOM     16  C   UNL d   1      11.961  -1.822   6.827  0.00  0.00     0.029 A 
BRANCH  13  17
ATOM     17  C   UNL d   1      16.050  -1.847   5.560  0.00  0.00     0.417 C 
ATOM     18  F   UNL d   1      16.754  -2.931   6.002  0.00  0.00    -0.166 F 
ATOM     19  F   UNL d   1      16.762  -0.762   5.988  0.00  0.00    -0.166 F 
ATOM     20  F   UNL d   1      16.180  -1.855   4.201  0.00  0.00    -0.166 F 
ENDBRANCH  13  17
ENDBRANCH   8  11
ENDBRANCH   2   5
BRANCH   3  21
ATOM     21  C   UNL d   1       9.794   5.538   8.638  0.00  0.00     0.078 C 
ATOM     22  C   UNL d   1       8.973   5.947   9.616  0.00  0.00    -0.071 C 
ATOM     23  C   UNL d   1       7.916   6.997   9.414  0.00  0.00     0.054 C 
ATOM     24  C   UNL d   1       9.011   5.382  11.008  0.00  0.00     0.054 C 
ATOM     25  C   UNL d   1       6.544   6.468   9.836  0.00  0.00     0.127 C 
ATOM     26  N   UNL d   1       6.600   5.895  11.192  0.00  0.00    -0.380 N 
ATOM     27  C   UNL d   1       7.629   4.870  11.424  0.00  0.00     0.127 C 
BRANCH  26  28
ATOM     28  C   UNL d   1       5.408   5.852  11.923  0.00  0.00     0.030 A 
ATOM     29  C   UNL d   1       5.149   4.777  12.774  0.00  0.00     0.032 A 
ATOM     30  C   UNL d   1       3.961   4.734  13.503  0.00  0.00     0.038 A 
ATOM     31  C   UNL d   1       3.030   5.767  13.381  0.00  0.00     0.103 A 
ATOM     32  C   UNL d   1       3.288   6.841  12.530  0.00  0.00     0.038 A 
ATOM     33  C   UNL d   1       4.477   6.884  11.802  0.00  0.00     0.032 A 
BRANCH  31  34
ATOM     34  N   UNL d   1       1.820   5.723  14.122  0.00  0.00    -0.116 N 
ATOM     35  O   UNL d   1       0.988   4.818  13.874  0.00  0.00    -0.532 OA
ATOM     36  O   UNL d   1       1.615   6.592  15.004  0.00  0.00    -0.532 OA
ENDBRANCH  31  34
ENDBRANCH  26  28
ENDBRANCH   3  21
TORSDOF 6
ENDMDL
MODEL 2
REMARK VINA RESULT:      -7.5      2.655      3.181
REMARK  6 active torsions:
REMARK  status: ('A' for Active; 'I' for Inactive)
REMARK    1  A    between atoms: N_8  and  C_18 
REMARK    2  A    between atoms: N_9  and  N_11 
REMARK       I    between atoms: N_9  and  C_22 
REMARK    3  A    between atoms: N_10  and  C_25 
REMARK       I    between atoms: N_11  and  C_27 
REMARK    4  A    between atoms: N_12  and  C_26 
REMARK       I    between atoms: N_12  and  C_27 
REMARK    5  A    between atoms: C_19  and  C_22 
REMARK    6  A    between atoms: C_28  and  C_33 
ROOT
ATOM      1  O   UNL d   1      11.858   4.737   9.438  0.00  0.00    -0.267 OA
ATOM      2  N   UNL d   1      10.459   3.354   8.202  0.00  0.00    -0.263 N 
ATOM      3  C   UNL d   1      10.824   4.540   8.808  0.00  0.00     0.260 C 
ATOM      4  H   UNL d   1       9.598   3.218   7.684  0.00  0.00     0.190 HD
ENDROOT
BRANCH   2   5
ATOM      5  N   UNL d   1      11.305   2.277   8.291  0.00  0.00    -0.248 N 
ATOM      6  C   UNL d   1      10.825   1.075   8.809  0.00  0.00     0.339 C 
ATOM      7  O   UNL d   1       9.668   0.923   9.195  0.00  0.00    -0.245 OA
ATOM      8  N   UNL d   1      11.837   0.111   8.811  0.00  0.00    -0.308 N 
ATOM      9  H   UNL d   1      12.743   0.404   8.453  0.00  0.00     0.170 HD
ATOM     10  H   UNL d   1      12.256   2.407   7.965  0.00  0.00     0.192 HD
BRANCH   8  11
ATOM     11  C   UNL d   1      11.759  -1.230   9.253  0.00  0.00     0.037 A 
ATOM     12  C   UNL d   1      12.792  -1.775  10.014  0.00  0.00     0.045 A 
ATOM     13  C   UNL d   1      12.715  -3.098  10.450  0.00  0.00     0.050 A 
ATOM     14  C   UNL d   1      11.604  -3.875  10.124  0.00  0.00     0.016 A 
ATOM     15  C   UNL d   1      10.569  -3.330   9.364  0.00  0.00     0.003 A 
ATOM     16  C   UNL d   1      10.647  -2.007   8.928  0.00  0.00     0.029 A 
BRANCH  13  17
ATOM     17  C   UNL d   1      13.821  -3.681  11.263  0.00  0.00     0.417 C 
ATOM     18  F   UNL d   1      15.041  -3.123  11.007  0.00  0.00    -0.166 F 
ATOM     19  F   UNL d   1      13.995  -5.022  11.067  0.00  0.00    -0.166 F 
ATOM     20  F   UNL d   1      13.622  -3.531  12.605  0.00  0.00    -0.166 F 
ENDBRANCH  13  17
ENDBRANCH   8  11
ENDBRANCH   2   5
BRANCH   3  21
ATOM     21  C   UNL d   1       9.793   5.590   8.608  0.00  0.00     0.078 C 
ATOM     22  C   UNL d   1       8.985   5.945   9.617  0.00  0.00    -0.071 C 
ATOM     23  C   UNL d   1       7.921   6.999   9.484  0.00  0.00     0.054 C 
ATOM     24  C   UNL d   1       9.046   5.311  10.978  0.00  0.00     0.054 C 
ATOM     25  C   UNL d   1       6.558   6.443   9.898  0.00  0.00     0.127 C 
ATOM     26  N   UNL d   1       6.636   5.803  11.223  0.00  0.00    -0.380 N 
ATOM     27  C   UNL d   1       7.673   4.772  11.388  0.00  0.00     0.127 C 
BRANCH  26  28
ATOM     28  C   UNL d   1       5.455   5.718  11.968  0.00  0.00     0.030 A 
ATOM     29  C   UNL d   1       4.550   6.780  11.965  0.00  0.00     0.032 A 
ATOM     30  C   UNL d   1       3.372   6.695  12.706  0.00  0.00     0.038 A 
ATOM     31  C   UNL d   1       3.099   5.548  13.453  0.00  0.00     0.103 A 
ATOM     32  C   UNL d   1       4.004   4.487  13.457  0.00  0.00     0.038 A 
ATOM     33  C   UNL d   1       5.181   4.572  12.715  0.00  0.00     0.032 A 
BRANCH  31  34
ATOM     34  N   UNL d   1       1.901   5.462  14.210  0.00  0.00    -0.116 N 
ATOM     35  O   UNL d   1       1.029   6.354  14.072  0.00  0.00    -0.532 OA
ATOM     36  O   UNL d   1       1.746   4.497  14.997  0.00  0.00    -0.532 OA
ENDBRANCH  31  34
ENDBRANCH  26  28
ENDBRANCH   3  21
TORSDOF 6
ENDMDL
MODEL 3
REMARK VINA RESULT:      -7.4     11.887     15.485
REMARK  6 active torsions:
REMARK  status: ('A' for Active; 'I' for Inactive)
REMARK    1  A    between atoms: N_8  and  C_18 
REMARK    2  A    between atoms: N_9  and  N_11 
REMARK       I    between atoms: N_9  and  C_22 
REMARK    3  A    between atoms: N_10  and  C_25 
REMARK       I    between atoms: N_11  and  C_27 
REMARK    4  A    between atoms: N_12  and  C_26 
REMARK       I    between atoms: N_12  and  C_27 
REMARK    5  A    between atoms: C_19  and  C_22 
REMARK    6  A    between atoms: C_28  and  C_33 
ROOT
ATOM      1  O   UNL d   1      18.643   3.640  -1.597  0.00  0.00    -0.267 OA
ATOM      2  N   UNL d   1      18.558   4.731   0.451  0.00  0.00    -0.263 N 
ATOM      3  C   UNL d   1      18.962   3.736  -0.416  0.00  0.00     0.260 C 
ATOM      4  H   UNL d   1      18.838   4.789   1.425  0.00  0.00     0.190 HD
ENDROOT
BRANCH   2   5
ATOM      5  N   UNL d   1      17.725   5.718  -0.013  0.00  0.00    -0.248 N 
ATOM      6  C   UNL d   1      18.278   6.848  -0.614  0.00  0.00     0.339 C 
ATOM      7  O   UNL d   1      19.488   7.012  -0.754  0.00  0.00    -0.245 OA
ATOM      8  N   UNL d   1      17.267   7.725  -1.016  0.00  0.00    -0.308 N 
ATOM      9  H   UNL d   1      16.312   7.434  -0.825  0.00  0.00     0.170 HD
ATOM     10  H   UNL d   1      16.728   5.574   0.100  0.00  0.00     0.192 HD
BRANCH   8  11
ATOM     11  C   UNL d   1      17.407   8.976  -1.661  0.00  0.00     0.037 A 
ATOM     12  C   UNL d   1      17.726  10.112  -0.918  0.00  0.00     0.045 A 
ATOM     13  C   UNL d   1      17.864  11.346  -1.555  0.00  0.00     0.050 A 
ATOM     14  C   UNL d   1      17.682  11.443  -2.934  0.00  0.00     0.016 A 
ATOM     15  C   UNL d   1      17.363  10.306  -3.677  0.00  0.00     0.003 A 
ATOM     16  C   UNL d   1      17.226   9.073  -3.041  0.00  0.00     0.029 A 
BRANCH  13  17
ATOM     17  C   UNL d   1      18.205  12.561  -0.760  0.00  0.00     0.417 C 
ATOM     18  F   UNL d   1      17.781  12.504   0.537  0.00  0.00    -0.166 F 
ATOM     19  F   UNL d   1      17.663  13.711  -1.260  0.00  0.00    -0.166 F 
ATOM     20  F   UNL d   1      19.549  12.788  -0.697  0.00  0.00    -0.166 F 
ENDBRANCH  13  17
ENDBRANCH   8  11
ENDBRANCH   2   5
BRANCH   3  21
ATOM     21  C   UNL d   1      19.856   2.760   0.256  0.00  0.00     0.078 C 
ATOM     22  C   UNL d   1      19.371   1.591   0.699  0.00  0.00    -0.071 C 
ATOM     23  C   UNL d   1      20.219   0.559   1.388  0.00  0.00     0.054 C 
ATOM     24  C   UNL d   1      17.925   1.203   0.571  0.00  0.00     0.054 C 
ATOM     25  C   UNL d   1      19.621   0.191   2.746  0.00  0.00     0.127 C 
ATOM     26  N   UNL d   1      18.197  -0.165   2.611  0.00  0.00    -0.380 N 
ATOM     27  C   UNL d   1      17.341   0.822   1.934  0.00  0.00     0.127 C 
BRANCH  26  28
ATOM     28  C   UNL d   1      17.645  -0.999   3.589  0.00  0.00     0.030 A 
ATOM     29  C   UNL d   1      16.883  -0.454   4.622  0.00  0.00     0.032 A 
ATOM     30  C   UNL d   1      16.332  -1.285   5.597  0.00  0.00     0.038 A 
ATOM     31  C   UNL d   1      16.545  -2.663   5.539  0.00  0.00     0.103 A 
ATOM     32  C   UNL d   1      17.308  -3.209   4.507  0.00  0.00     0.038 A 
ATOM     33  C   UNL d   1      17.857  -2.377   3.532  0.00  0.00     0.032 A 
BRANCH  31  34
ATOM     34  N   UNL d   1      15.986  -3.510   6.532  0.00  0.00    -0.116 N 
ATOM     35  O   UNL d   1      16.629  -4.521   6.902  0.00  0.00    -0.532 OA
ATOM     36  O   UNL d   1      14.862  -3.225   7.012  0.00  0.00    -0.532 OA
ENDBRANCH  31  34
ENDBRANCH  26  28
ENDBRANCH   3  21
TORSDOF 6
ENDMDL
MODEL 4
REMARK VINA RESULT:      -7.2     13.123     14.551
REMARK  6 active torsions:
REMARK  status: ('A' for Active; 'I' for Inactive)
REMARK    1  A    between atoms: N_8  and  C_18 
REMARK    2  A    between atoms: N_9  and  N_11 
REMARK       I    between atoms: N_9  and  C_22 
REMARK    3  A    between atoms: N_10  and  C_25 
REMARK       I    between atoms: N_11  and  C_27 
REMARK    4  A    between atoms: N_12  and  C_26 
REMARK       I    between atoms: N_12  and  C_27 
REMARK    5  A    between atoms: C_19  and  C_22 
REMARK    6  A    between atoms: C_28  and  C_33 
ROOT
ATOM      1  O   UNL d   1      18.955   6.102  -2.533  0.00  0.00    -0.267 OA
ATOM      2  N   UNL d   1      17.849   5.941  -0.498  0.00  0.00    -0.263 N 
ATOM      3  C   UNL d   1      18.005   6.364  -1.803  0.00  0.00     0.260 C 
ATOM      4  H   UNL d   1      17.051   6.170   0.086  0.00  0.00     0.190 HD
ENDROOT
BRANCH   2   5
ATOM      5  N   UNL d   1      18.822   5.155   0.066  0.00  0.00    -0.248 N 
ATOM      6  C   UNL d   1      18.526   3.831   0.388  0.00  0.00     0.339 C 
ATOM      7  O   UNL d   1      17.425   3.320   0.192  0.00  0.00    -0.245 OA
ATOM      8  N   UNL d   1      19.646   3.208   0.946  0.00  0.00    -0.308 N 
ATOM      9  H   UNL d   1      20.484   3.777   1.037  0.00  0.00     0.170 HD
ATOM     10  H   UNL d   1      19.730   5.580   0.219  0.00  0.00     0.192 HD
BRANCH   8  11
ATOM     11  C   UNL d   1      19.761   1.874   1.403  0.00  0.00     0.037 A 
ATOM     12  C   UNL d   1      19.287   1.527   2.667  0.00  0.00     0.045 A 
ATOM     13  C   UNL d   1      19.401   0.211   3.117  0.00  0.00     0.050 A 
ATOM     14  C   UNL d   1      19.989  -0.756   2.303  0.00  0.00     0.016 A 
ATOM     15  C   UNL d   1      20.462  -0.409   1.038  0.00  0.00     0.003 A 
ATOM     16  C   UNL d   1      20.348   0.906   0.588  0.00  0.00     0.029 A 
BRANCH  13  17
ATOM     17  C   UNL d   1      18.895  -0.160   4.470  0.00  0.00     0.417 C 
ATOM     18  F   UNL d   1      17.969   0.713   4.967  0.00  0.00    -0.166 F 
ATOM     19  F   UNL d   1      19.872  -0.221   5.423  0.00  0.00    -0.166 F 
ATOM     20  F   UNL d   1      18.291  -1.384   4.488  0.00  0.00    -0.166 F 
ENDBRANCH  13  17
ENDBRANCH   8  11
ENDBRANCH   2   5
BRANCH   3  21
ATOM     21  C   UNL d   1      16.859   7.200  -2.243  0.00  0.00     0.078 C 
ATOM     22  C   UNL d   1      16.977   8.535  -2.297  0.00  0.00    -0.071 C 
ATOM     23  C   UNL d   1      15.859   9.439  -2.733  0.00  0.00     0.054 C 
ATOM     24  C   UNL d   1      18.232   9.263  -1.906  0.00  0.00     0.054 C 
ATOM     25  C   UNL d   1      15.577  10.498  -1.665  0.00  0.00     0.127 C 
ATOM     26  N   UNL d   1      16.819  11.189  -1.274  0.00  0.00    -0.380 N 
ATOM     27  C   UNL d   1      17.935  10.330  -0.850  0.00  0.00     0.127 C 
BRANCH  26  28
ATOM     28  C   UNL d   1      16.699  12.477  -0.741  0.00  0.00     0.030 A 
ATOM     29  C   UNL d   1      16.589  13.577  -1.593  0.00  0.00     0.032 A 
ATOM     30  C   UNL d   1      16.468  14.861  -1.062  0.00  0.00     0.038 A 
ATOM     31  C   UNL d   1      16.459  15.046   0.321  0.00  0.00     0.103 A 
ATOM     32  C   UNL d   1      16.570  13.947   1.172  0.00  0.00     0.038 A 
ATOM     33  C   UNL d   1      16.690  12.663   0.641  0.00  0.00     0.032 A 
BRANCH  31  34
ATOM     34  N   UNL d   1      16.339  16.353   0.862  0.00  0.00    -0.116 N 
ATOM     35  O   UNL d   1      16.844  17.318   0.240  0.00  0.00    -0.532 OA
ATOM     36  O   UNL d   1      15.730  16.508   1.949  0.00  0.00    -0.532 OA
ENDBRANCH  31  34
ENDBRANCH  26  28
ENDBRANCH   3  21
TORSDOF 6
ENDMDL
MODEL 5
REMARK VINA RESULT:      -7.1     11.336     14.358
REMARK  6 active torsions:
REMARK  status: ('A' for Active; 'I' for Inactive)
REMARK    1  A    between atoms: N_8  and  C_18 
REMARK    2  A    between atoms: N_9  and  N_11 
REMARK       I    between atoms: N_9  and  C_22 
REMARK    3  A    between atoms: N_10  and  C_25 
REMARK       I    between atoms: N_11  and  C_27 
REMARK    4  A    between atoms: N_12  and  C_26 
REMARK       I    between atoms: N_12  and  C_27 
REMARK    5  A    between atoms: C_19  and  C_22 
REMARK    6  A    between atoms: C_28  and  C_33 
ROOT
ATOM      1  O   UNL d   1      17.475   2.229   0.258  0.00  0.00    -0.267 OA
ATOM      2  N   UNL d   1      16.613   4.269   0.958  0.00  0.00    -0.263 N 
ATOM      3  C   UNL d   1      16.591   2.900   0.783  0.00  0.00     0.260 C 
ATOM      4  H   UNL d   1      15.869   4.802   1.398  0.00  0.00     0.190 HD
ENDROOT
BRANCH   2   5
ATOM      5  N   UNL d   1      17.704   4.977   0.519  0.00  0.00    -0.248 N 
ATOM      6  C   UNL d   1      17.518   6.032  -0.373  0.00  0.00     0.339 C 
ATOM      7  O   UNL d   1      16.414   6.370  -0.795  0.00  0.00    -0.245 OA
ATOM      8  N   UNL d   1      18.746   6.618  -0.692  0.00  0.00    -0.308 N 
ATOM      9  H   UNL d   1      19.569   6.215  -0.251  0.00  0.00     0.170 HD
ATOM     10  H   UNL d   1      18.611   4.698   0.875  0.00  0.00     0.192 HD
BRANCH   8  11
ATOM     11  C   UNL d   1      18.990   7.710  -1.556  0.00  0.00     0.037 A 
ATOM     12  C   UNL d   1      18.820   9.016  -1.098  0.00  0.00     0.045 A 
ATOM     13  C   UNL d   1      19.061  10.092  -1.951  0.00  0.00     0.050 A 
ATOM     14  C   UNL d   1      19.472   9.863  -3.264  0.00  0.00     0.016 A 
ATOM     15  C   UNL d   1      19.643   8.557  -3.723  0.00  0.00     0.003 A 
ATOM     16  C   UNL d   1      19.402   7.480  -2.870  0.00  0.00     0.029 A 
BRANCH  13  17
ATOM     17  C   UNL d   1      18.879  11.489  -1.460  0.00  0.00     0.417 C 
ATOM     18  F   UNL d   1      18.256  12.308  -2.358  0.00  0.00    -0.166 F 
ATOM     19  F   UNL d   1      20.053  12.120  -1.158  0.00  0.00    -0.166 F 
ATOM     20  F   UNL d   1      18.127  11.552  -0.323  0.00  0.00    -0.166 F 
ENDBRANCH  13  17
ENDBRANCH   8  11
ENDBRANCH   2   5
BRANCH   3  21
ATOM     21  C   UNL d   1      15.340   2.305   1.317  0.00  0.00     0.078 C 
ATOM     22  C   UNL d   1      15.341   1.678   2.502  0.00  0.00    -0.071 C 
ATOM     23  C   UNL d   1      14.111   1.054   3.100  0.00  0.00     0.054 C 
ATOM     24  C   UNL d   1      16.576   1.517   3.342  0.00  0.00     0.054 C 
ATOM     25  C   UNL d   1      14.365  -0.416   3.438  0.00  0.00     0.127 C 
ATOM     26  N   UNL d   1      15.591  -0.563   4.243  0.00  0.00    -0.380 N 
ATOM     27  C   UNL d   1      16.811   0.044   3.688  0.00  0.00     0.127 C 
BRANCH  26  28
ATOM     28  C   UNL d   1      15.695  -1.696   5.058  0.00  0.00     0.030 A 
ATOM     29  C   UNL d   1      16.696  -2.638   4.819  0.00  0.00     0.032 A 
ATOM     30  C   UNL d   1      16.801  -3.766   5.632  0.00  0.00     0.038 A 
ATOM     31  C   UNL d   1      15.903  -3.953   6.684  0.00  0.00     0.103 A 
ATOM     32  C   UNL d   1      14.902  -3.012   6.922  0.00  0.00     0.038 A 
ATOM     33  C   UNL d   1      14.799  -1.883   6.110  0.00  0.00     0.032 A 
BRANCH  31  34
ATOM     34  N   UNL d   1      16.008  -5.103   7.511  0.00  0.00    -0.116 N 
ATOM     35  O   UNL d   1      16.466  -4.977   8.672  0.00  0.00    -0.532 OA
ATOM     36  O   UNL d   1      15.640  -6.214   7.057  0.00  0.00    -0.532 OA
ENDBRANCH  31  34
ENDBRANCH  26  28
ENDBRANCH   3  21
TORSDOF 6
ENDMDL
MODEL 6
REMARK VINA RESULT:      -7.1      5.773     12.865
REMARK  6 active torsions:
REMARK  status: ('A' for Active; 'I' for Inactive)
REMARK    1  A    between atoms: N_8  and  C_18 
REMARK    2  A    between atoms: N_9  and  N_11 
REMARK       I    between atoms: N_9  and  C_22 
REMARK    3  A    between atoms: N_10  and  C_25 
REMARK       I    between atoms: N_11  and  C_27 
REMARK    4  A    between atoms: N_12  and  C_26 
REMARK       I    between atoms: N_12  and  C_27 
REMARK    5  A    between atoms: C_19  and  C_22 
REMARK    6  A    between atoms: C_28  and  C_33 
ROOT
ATOM      1  O   UNL d   1      11.241  -2.780   6.581  0.00  0.00    -0.267 OA
ATOM      2  N   UNL d   1      12.023  -2.944   8.762  0.00  0.00    -0.263 N 
ATOM      3  C   UNL d   1      12.097  -3.116   7.394  0.00  0.00     0.260 C 
ATOM      4  H   UNL d   1      12.746  -3.229   9.414  0.00  0.00     0.190 HD
ENDROOT
BRANCH   2   5
ATOM      5  N   UNL d   1      10.908  -2.347   9.297  0.00  0.00    -0.248 N 
ATOM      6  C   UNL d   1      10.955  -0.995   9.632  0.00  0.00     0.339 C 
ATOM      7  O   UNL d   1      11.954  -0.296   9.473  0.00  0.00    -0.245 OA
ATOM      8  N   UNL d   1       9.726  -0.584  10.155  0.00  0.00    -0.308 N 
ATOM      9  H   UNL d   1       9.000  -1.293  10.218  0.00  0.00     0.170 HD
ATOM     10  H   UNL d   1      10.086  -2.927   9.420  0.00  0.00     0.192 HD
BRANCH   8  11
ATOM     11  C   UNL d   1       9.363   0.704  10.613  0.00  0.00     0.037 A 
ATOM     12  C   UNL d   1       9.936   1.837  10.037  0.00  0.00     0.045 A 
ATOM     13  C   UNL d   1       9.576   3.106  10.489  0.00  0.00     0.050 A 
ATOM     14  C   UNL d   1       8.644   3.243  11.517  0.00  0.00     0.016 A 
ATOM     15  C   UNL d   1       8.069   2.110  12.092  0.00  0.00     0.003 A 
ATOM     16  C   UNL d   1       8.429   0.840  11.640  0.00  0.00     0.029 A 
BRANCH  13  17
ATOM     17  C   UNL d   1      10.191   4.318   9.874  0.00  0.00     0.417 C 
ATOM     18  F   UNL d   1       9.751   5.492  10.419  0.00  0.00    -0.166 F 
ATOM     19  F   UNL d   1       9.946   4.435   8.534  0.00  0.00    -0.166 F 
ATOM     20  F   UNL d   1      11.549   4.341  10.000  0.00  0.00    -0.166 F 
ENDBRANCH  13  17
ENDBRANCH   8  11
ENDBRANCH   2   5
BRANCH   3  21
ATOM     21  C   UNL d   1      13.368  -3.774   6.998  0.00  0.00     0.078 C 
ATOM     22  C   UNL d   1      14.469  -3.041   6.780  0.00  0.00    -0.071 C 
ATOM     23  C   UNL d   1      15.787  -3.642   6.376  0.00  0.00     0.054 C 
ATOM     24  C   UNL d   1      14.493  -1.543   6.895  0.00  0.00     0.054 C 
ATOM     25  C   UNL d   1      16.301  -2.993   5.090  0.00  0.00     0.127 C 
ATOM     26  N   UNL d   1      16.298  -1.525   5.208  0.00  0.00    -0.380 N 
ATOM     27  C   UNL d   1      15.025  -0.907   5.608  0.00  0.00     0.127 C 
BRANCH  26  28
ATOM     28  C   UNL d   1      17.184  -0.811   4.393  0.00  0.00     0.030 A 
ATOM     29  C   UNL d   1      16.774  -0.373   3.133  0.00  0.00     0.032 A 
ATOM     30  C   UNL d   1      17.656   0.339   2.321  0.00  0.00     0.038 A 
ATOM     31  C   UNL d   1      18.950   0.612   2.768  0.00  0.00     0.103 A 
ATOM     32  C   UNL d   1      19.359   0.174   4.027  0.00  0.00     0.038 A 
ATOM     33  C   UNL d   1      18.476  -0.537   4.839  0.00  0.00     0.032 A 
BRANCH  31  34
ATOM     34  N   UNL d   1      19.848   1.336   1.941  0.00  0.00    -0.116 N 
ATOM     35  O   UNL d   1      20.507   0.717   1.070  0.00  0.00    -0.532 OA
ATOM     36  O   UNL d   1      19.962   2.576   2.104  0.00  0.00    -0.532 OA
ENDBRANCH  31  34
ENDBRANCH  26  28
ENDBRANCH   3  21
TORSDOF 6
ENDMDL
MODEL 7
REMARK VINA RESULT:      -7.0      6.803      9.213
REMARK  6 active torsions:
REMARK  status: ('A' for Active; 'I' for Inactive)
REMARK    1  A    between atoms: N_8  and  C_18 
REMARK    2  A    between atoms: N_9  and  N_11 
REMARK       I    between atoms: N_9  and  C_22 
REMARK    3  A    between atoms: N_10  and  C_25 
REMARK       I    between atoms: N_11  and  C_27 
REMARK    4  A    between atoms: N_12  and  C_26 
REMARK       I    between atoms: N_12  and  C_27 
REMARK    5  A    between atoms: C_19  and  C_22 
REMARK    6  A    between atoms: C_28  and  C_33 
ROOT
ATOM      1  O   UNL d   1       9.823  -3.005   9.509  0.00  0.00    -0.267 OA
ATOM      2  N   UNL d   1      12.017  -3.180  10.250  0.00  0.00    -0.263 N 
ATOM      3  C   UNL d   1      11.024  -2.796   9.371  0.00  0.00     0.260 C 
ATOM      4  H   UNL d   1      13.005  -2.992  10.114  0.00  0.00     0.190 HD
ENDROOT
BRANCH   2   5
ATOM      5  N   UNL d   1      11.667  -3.857  11.391  0.00  0.00    -0.248 N 
ATOM      6  C   UNL d   1      12.648  -4.143  12.341  0.00  0.00     0.339 C 
ATOM      7  O   UNL d   1      13.826  -3.818  12.211  0.00  0.00    -0.245 OA
ATOM      8  N   UNL d   1      12.089  -4.832  13.420  0.00  0.00    -0.308 N 
ATOM      9  H   UNL d   1      11.091  -5.022  13.369  0.00  0.00     0.170 HD
ATOM     10  H   UNL d   1      10.693  -4.118  11.495  0.00  0.00     0.192 HD
BRANCH   8  11
ATOM     11  C   UNL d   1      12.741  -5.302  14.584  0.00  0.00     0.037 A 
ATOM     12  C   UNL d   1      13.198  -4.398  15.541  0.00  0.00     0.045 A 
ATOM     13  C   UNL d   1      13.841  -4.862  16.689  0.00  0.00     0.050 A 
ATOM     14  C   UNL d   1      14.027  -6.231  16.878  0.00  0.00     0.016 A 
ATOM     15  C   UNL d   1      13.568  -7.137  15.921  0.00  0.00     0.003 A 
ATOM     16  C   UNL d   1      12.925  -6.672  14.774  0.00  0.00     0.029 A 
BRANCH  13  17
ATOM     17  C   UNL d   1      14.331  -3.894  17.712  0.00  0.00     0.417 C 
ATOM     18  F   UNL d   1      13.444  -3.677  18.729  0.00  0.00    -0.166 F 
ATOM     19  F   UNL d   1      14.603  -2.654  17.207  0.00  0.00    -0.166 F 
ATOM     20  F   UNL d   1      15.485  -4.304  18.314  0.00  0.00    -0.166 F 
ENDBRANCH  13  17
ENDBRANCH   8  11
ENDBRANCH   2   5
BRANCH   3  21
ATOM     21  C   UNL d   1      11.585  -2.077   8.199  0.00  0.00     0.078 C 
ATOM     22  C   UNL d   1      11.717  -0.743   8.224  0.00  0.00    -0.071 C 
ATOM     23  C   UNL d   1      12.276   0.047   7.074  0.00  0.00     0.054 C 
ATOM     24  C   UNL d   1      11.300   0.100   9.396  0.00  0.00     0.054 C 
ATOM     25  C   UNL d   1      11.298   1.144   6.649  0.00  0.00     0.127 C 
ATOM     26  N   UNL d   1      10.879   1.949   7.810  0.00  0.00    -0.380 N 
ATOM     27  C   UNL d   1      10.334   1.204   8.956  0.00  0.00     0.127 C 
BRANCH  26  28
ATOM     28  C   UNL d   1      10.438   3.253   7.565  0.00  0.00     0.030 A 
ATOM     29  C   UNL d   1      10.430   4.193   8.596  0.00  0.00     0.032 A 
ATOM     30  C   UNL d   1       9.992   5.494   8.351  0.00  0.00     0.038 A 
ATOM     31  C   UNL d   1       9.559   5.856   7.074  0.00  0.00     0.103 A 
ATOM     32  C   UNL d   1       9.566   4.917   6.044  0.00  0.00     0.038 A 
ATOM     33  C   UNL d   1      10.005   3.616   6.289  0.00  0.00     0.032 A 
BRANCH  31  34
ATOM     34  N   UNL d   1       9.111   7.180   6.825  0.00  0.00    -0.116 N 
ATOM     35  O   UNL d   1       9.760   7.902   6.031  0.00  0.00    -0.532 OA
ATOM     36  O   UNL d   1       8.078   7.592   7.407  0.00  0.00    -0.532 OA
ENDBRANCH  31  34
ENDBRANCH  26  28
ENDBRANCH   3  21
TORSDOF 6
ENDMDL
MODEL 8
REMARK VINA RESULT:      -6.9     13.380     14.377
REMARK  6 active torsions:
REMARK  status: ('A' for Active; 'I' for Inactive)
REMARK    1  A    between atoms: N_8  and  C_18 
REMARK    2  A    between atoms: N_9  and  N_11 
REMARK       I    between atoms: N_9  and  C_22 
REMARK    3  A    between atoms: N_10  and  C_25 
REMARK       I    between atoms: N_11  and  C_27 
REMARK    4  A    between atoms: N_12  and  C_26 
REMARK       I    between atoms: N_12  and  C_27 
REMARK    5  A    between atoms: C_19  and  C_22 
REMARK    6  A    between atoms: C_28  and  C_33 
ROOT
ATOM      1  O   UNL d   1      16.138   8.167  -1.599  0.00  0.00    -0.267 OA
ATOM      2  N   UNL d   1      18.284   7.899  -0.754  0.00  0.00    -0.263 N 
ATOM      3  C   UNL d   1      17.276   8.582  -1.404  0.00  0.00     0.260 C 
ATOM      4  H   UNL d   1      19.218   8.266  -0.603  0.00  0.00     0.190 HD
ENDROOT
BRANCH   2   5
ATOM      5  N   UNL d   1      18.027   6.641  -0.269  0.00  0.00    -0.248 N 
ATOM      6  C   UNL d   1      18.969   5.631  -0.463  0.00  0.00     0.339 C 
ATOM      7  O   UNL d   1      20.032   5.806  -1.054  0.00  0.00    -0.245 OA
ATOM      8  N   UNL d   1      18.519   4.436   0.105  0.00  0.00    -0.308 N 
ATOM      9  H   UNL d   1      17.610   4.464   0.560  0.00  0.00     0.170 HD
ATOM     10  H   UNL d   1      17.152   6.504   0.223  0.00  0.00     0.192 HD
BRANCH   8  11
ATOM     11  C   UNL d   1      19.174   3.182   0.125  0.00  0.00     0.037 A 
ATOM     12  C   UNL d   1      19.233   2.445   1.307  0.00  0.00     0.045 A 
ATOM     13  C   UNL d   1      19.879   1.209   1.326  0.00  0.00     0.050 A 
ATOM     14  C   UNL d   1      20.465   0.710   0.163  0.00  0.00     0.016 A 
ATOM     15  C   UNL d   1      20.405   1.447  -1.020  0.00  0.00     0.003 A 
ATOM     16  C   UNL d   1      19.759   2.683  -1.039  0.00  0.00     0.029 A 
BRANCH  13  17
ATOM     17  C   UNL d   1      19.943   0.421   2.591  0.00  0.00     0.417 C 
ATOM     18  F   UNL d   1      20.593  -0.774   2.460  0.00  0.00    -0.166 F 
ATOM     19  F   UNL d   1      18.715   0.103   3.100  0.00  0.00    -0.166 F 
ATOM     20  F   UNL d   1      20.593   1.084   3.591  0.00  0.00    -0.166 F 
ENDBRANCH  13  17
ENDBRANCH   8  11
ENDBRANCH   2   5
BRANCH   3  21
ATOM     21  C   UNL d   1      17.732   9.920  -1.857  0.00  0.00     0.078 C 
ATOM     22  C   UNL d   1      17.593  10.989  -1.059  0.00  0.00    -0.071 C 
ATOM     23  C   UNL d   1      18.033  12.371  -1.455  0.00  0.00     0.054 C 
ATOM     24  C   UNL d   1      16.965  10.917   0.304  0.00  0.00     0.054 C 
ATOM     25  C   UNL d   1      16.874  13.361  -1.325  0.00  0.00     0.127 C 
ATOM     26  N   UNL d   1      16.251  13.265   0.007  0.00  0.00    -0.380 N 
ATOM     27  C   UNL d   1      15.817  11.923   0.427  0.00  0.00     0.127 C 
BRANCH  26  28
ATOM     28  C   UNL d   1      15.569  14.390   0.482  0.00  0.00     0.030 A 
ATOM     29  C   UNL d   1      16.283  15.510   0.909  0.00  0.00     0.032 A 
ATOM     30  C   UNL d   1      15.604  16.632   1.382  0.00  0.00     0.038 A 
ATOM     31  C   UNL d   1      14.209  16.634   1.429  0.00  0.00     0.103 A 
ATOM     32  C   UNL d   1      13.495  15.515   1.002  0.00  0.00     0.038 A 
ATOM     33  C   UNL d   1      14.175  14.393   0.529  0.00  0.00     0.032 A 
BRANCH  31  34
ATOM     34  N   UNL d   1      13.517  17.776   1.911  0.00  0.00    -0.116 N 
ATOM     35  O   UNL d   1      12.531  17.614   2.670  0.00  0.00    -0.532 OA
ATOM     36  O   UNL d   1      13.909  18.917   1.565  0.00  0.00    -0.532 OA
ENDBRANCH  31  34
ENDBRANCH  26  28
ENDBRANCH   3  21
TORSDOF 6
ENDMDL
MODEL 9
REMARK VINA RESULT:      -6.9      8.537     13.849
REMARK  6 active torsions:
REMARK  status: ('A' for Active; 'I' for Inactive)
REMARK    1  A    between atoms: N_8  and  C_18 
REMARK    2  A    between atoms: N_9  and  N_11 
REMARK       I    between atoms: N_9  and  C_22 
REMARK    3  A    between atoms: N_10  and  C_25 
REMARK       I    between atoms: N_11  and  C_27 
REMARK    4  A    between atoms: N_12  and  C_26 
REMARK       I    between atoms: N_12  and  C_27 
REMARK    5  A    between atoms: C_19  and  C_22 
REMARK    6  A    between atoms: C_28  and  C_33 
ROOT
ATOM      1  O   UNL d   1       2.929   2.442  12.977  0.00  0.00    -0.267 OA
ATOM      2  N   UNL d   1       3.402   3.399  15.039  0.00  0.00    -0.263 N 
ATOM      3  C   UNL d   1       3.721   2.756  13.860  0.00  0.00     0.260 C 
ATOM      4  H   UNL d   1       4.077   3.651  15.754  0.00  0.00     0.190 HD
ENDROOT
BRANCH   2   5
ATOM      5  N   UNL d   1       2.093   3.735  15.279  0.00  0.00    -0.248 N 
ATOM      6  C   UNL d   1       1.636   5.000  14.913  0.00  0.00     0.339 C 
ATOM      7  O   UNL d   1       2.351   5.845  14.377  0.00  0.00    -0.245 OA
ATOM      8  N   UNL d   1       0.285   5.139  15.240  0.00  0.00    -0.308 N 
ATOM      9  H   UNL d   1      -0.160   4.337  15.680  0.00  0.00     0.170 HD
ATOM     10  H   UNL d   1       1.507   3.032  15.715  0.00  0.00     0.192 HD
BRANCH   8  11
ATOM     11  C   UNL d   1      -0.549   6.263  15.034  0.00  0.00     0.037 A 
ATOM     12  C   UNL d   1      -0.460   7.363  15.887  0.00  0.00     0.045 A 
ATOM     13  C   UNL d   1      -1.282   8.471  15.683  0.00  0.00     0.050 A 
ATOM     14  C   UNL d   1      -2.193   8.479  14.627  0.00  0.00     0.016 A 
ATOM     15  C   UNL d   1      -2.281   7.380  13.773  0.00  0.00     0.003 A 
ATOM     16  C   UNL d   1      -1.459   6.272  13.977  0.00  0.00     0.029 A 
BRANCH  13  17
ATOM     17  C   UNL d   1      -1.188   9.647  16.596  0.00  0.00     0.417 C 
ATOM     18  F   UNL d   1      -2.403  10.138  16.984  0.00  0.00    -0.166 F 
ATOM     19  F   UNL d   1      -0.533  10.714  16.048  0.00  0.00    -0.166 F 
ATOM     20  F   UNL d   1      -0.520   9.363  17.752  0.00  0.00    -0.166 F 
ENDBRANCH  13  17
ENDBRANCH   8  11
ENDBRANCH   2   5
BRANCH   3  21
ATOM     21  C   UNL d   1       5.176   2.474  13.772  0.00  0.00     0.078 C 
ATOM     22  C   UNL d   1       6.014   3.396  13.277  0.00  0.00    -0.071 C 
ATOM     23  C   UNL d   1       7.497   3.177  13.159  0.00  0.00     0.054 C 
ATOM     24  C   UNL d   1       5.555   4.734  12.771  0.00  0.00     0.054 C 
ATOM     25  C   UNL d   1       7.963   3.417  11.722  0.00  0.00     0.127 C 
ATOM     26  N   UNL d   1       7.486   4.721  11.229  0.00  0.00    -0.380 N 
ATOM     27  C   UNL d   1       6.041   4.969  11.338  0.00  0.00     0.127 C 
BRANCH  26  28
ATOM     28  C   UNL d   1       8.213   5.324  10.197  0.00  0.00     0.030 A 
ATOM     29  C   UNL d   1       9.405   4.749   9.755  0.00  0.00     0.032 A 
ATOM     30  C   UNL d   1      10.129   5.350   8.726  0.00  0.00     0.038 A 
ATOM     31  C   UNL d   1       9.663   6.527   8.139  0.00  0.00     0.103 A 
ATOM     32  C   UNL d   1       8.472   7.102   8.582  0.00  0.00     0.038 A 
ATOM     33  C   UNL d   1       7.747   6.501   9.611  0.00  0.00     0.032 A 
BRANCH  31  34
ATOM     34  N   UNL d   1      10.401   7.140   7.092  0.00  0.00    -0.116 N 
ATOM     35  O   UNL d   1       9.814   7.934   6.318  0.00  0.00    -0.532 OA
ATOM     36  O   UNL d   1      11.620   6.870   6.969  0.00  0.00    -0.532 OA
ENDBRANCH  31  34
ENDBRANCH  26  28
ENDBRANCH   3  21
TORSDOF 6
ENDMDL
