MODEL 1
REMARK VINA RESULT:      -5.7      0.000      0.000
REMARK  8 active torsions:
REMARK  status: ('A' for Active; 'I' for Inactive)
REMARK    1  A    between atoms: O_4  and  C_14 
REMARK    2  A    between atoms: O_4  and  C_18 
REMARK    3  A    between atoms: O_5  and  C_17 
REMARK    4  A    between atoms: O_7  and  C_23 
REMARK    5  A    between atoms: N_8  and  CA_10 
REMARK    6  A    between atoms: C_9  and  CA_10 
REMARK    7  A    between atoms: C_9  and  C_11 
REMARK    8  A    between atoms: CA_10  and  C_17 
ROOT
ATOM      1  I   UNL d   1      12.004  -0.758   7.868  0.00  0.00    -0.042 I 
ATOM      2  I   UNL d   1      15.508  -5.626   6.741  0.00  0.00    -0.042 I 
ATOM      3  C   UNL d   1      15.744  -1.413   5.802  0.00  0.00    -0.053 A 
ATOM      4  C   UNL d   1      15.998  -2.771   5.911  0.00  0.00     0.028 A 
ATOM      5  C   UNL d   1      14.611  -0.843   6.358  0.00  0.00     0.028 A 
ATOM      6  C   UNL d   1      13.945  -3.022   7.161  0.00  0.00     0.109 A 
ATOM      7  C   UNL d   1      13.705  -1.654   7.041  0.00  0.00     0.042 A 
ATOM      8  C   UNL d   1      15.091  -3.581   6.595  0.00  0.00     0.042 A 
ENDROOT
BRANCH   6   9
ATOM      9  O   UNL d   1      13.058  -3.816   7.831  0.00  0.00    -0.308 OA
BRANCH   9  10
ATOM     10  C   UNL d   1      13.122  -3.819   9.213  0.00  0.00     0.077 A 
ATOM     11  C   UNL d   1      12.015  -4.222   9.940  0.00  0.00     0.058 A 
ATOM     12  C   UNL d   1      12.080  -4.226  11.333  0.00  0.00     0.042 A 
ATOM     13  I   UNL d   1      10.396  -4.837  12.409  0.00  0.00    -0.042 I 
ATOM     14  C   UNL d   1      13.252  -3.826  11.977  0.00  0.00     0.082 A 
ATOM     15  C   UNL d   1      14.357  -3.424  11.229  0.00  0.00     0.040 A 
ATOM     16  C   UNL d   1      14.291  -3.421   9.835  0.00  0.00     0.040 A 
BRANCH  14  17
ATOM     17  O   UNL d   1      13.356  -3.815  13.337  0.00  0.00    -0.359 OA
ATOM     18  H   UNL d   1      13.056  -2.954  13.675  0.00  0.00     0.217 HD
ENDBRANCH  14  17
ENDBRANCH   9  10
ENDBRANCH   6   9
BRANCH   3  19
ATOM     19  C   UNL d   1      16.726  -0.535   5.061  0.00  0.00     0.085 C 
BRANCH  19  20
ATOM     20  CA  UNL d   1      18.050  -1.250   4.751  0.00  0.00     0.318 C 
BRANCH  20  21
ATOM     21  N   UNL d   1      19.165  -0.319   4.912  0.00  0.00     0.093 N 
ATOM     22  H1  UNL d   1      19.494  -0.017   3.997  0.00  0.00     0.314 HD
ATOM     23  H2  UNL d   1      19.954  -0.797   5.347  0.00  0.00     0.314 HD
ENDBRANCH  20  21
BRANCH  20  24
ATOM     24  C   UNL d   1      18.107  -1.752   3.318  0.00  0.00     0.174 C 
ATOM     25  OXT UNL d   1      17.367  -1.379   2.417  0.00  0.00    -0.648 OA
BRANCH  24  26
ATOM     26  O   UNL d   1      19.107  -2.651   3.125  0.00  0.00    -0.775 OA
ATOM     27  H   UNL d   1      19.216  -3.247   3.896  0.00  0.00     0.167 HD
ENDBRANCH  24  26
ENDBRANCH  20  24
ENDBRANCH  19  20
ENDBRANCH   3  19
TORSDOF 8
ENDMDL
MODEL 2
REMARK VINA RESULT:      -5.6     11.571     12.591
REMARK  8 active torsions:
REMARK  status: ('A' for Active; 'I' for Inactive)
REMARK    1  A    between atoms: O_4  and  C_14 
REMARK    2  A    between atoms: O_4  and  C_18 
REMARK    3  A    between atoms: O_5  and  C_17 
REMARK    4  A    between atoms: O_7  and  C_23 
REMARK    5  A    between atoms: N_8  and  CA_10 
REMARK    6  A    between atoms: C_9  and  CA_10 
REMARK    7  A    between atoms: C_9  and  C_11 
REMARK    8  A    between atoms: CA_10  and  C_17 
ROOT
ATOM      1  I   UNL d   1       3.980   7.142   7.657  0.00  0.00    -0.042 I 
ATOM      2  I   UNL d   1       7.281   3.577  11.351  0.00  0.00    -0.042 I 
ATOM      3  C   UNL d   1       8.201   6.643   8.446  0.00  0.00    -0.053 A 
ATOM      4  C   UNL d   1       8.285   5.653   9.411  0.00  0.00     0.028 A 
ATOM      5  C   UNL d   1       6.978   7.065   7.949  0.00  0.00     0.028 A 
ATOM      6  C   UNL d   1       5.875   5.482   9.402  0.00  0.00     0.109 A 
ATOM      7  C   UNL d   1       5.808   6.480   8.431  0.00  0.00     0.042 A 
ATOM      8  C   UNL d   1       7.114   5.069   9.893  0.00  0.00     0.042 A 
ENDROOT
BRANCH   6   9
ATOM      9  O   UNL d   1       4.728   4.909   9.875  0.00  0.00    -0.308 OA
BRANCH   9  10
ATOM     10  C   UNL d   1       4.241   5.362  11.087  0.00  0.00     0.077 A 
ATOM     11  C   UNL d   1       3.459   4.521  11.859  0.00  0.00     0.058 A 
ATOM     12  C   UNL d   1       2.967   4.979  13.081  0.00  0.00     0.042 A 
ATOM     13  I   UNL d   1       1.788   3.690  14.228  0.00  0.00    -0.042 I 
ATOM     14  C   UNL d   1       3.265   6.272  13.512  0.00  0.00     0.082 A 
ATOM     15  C   UNL d   1       4.055   7.106  12.722  0.00  0.00     0.040 A 
ATOM     16  C   UNL d   1       4.547   6.647  11.500  0.00  0.00     0.040 A 
BRANCH  14  17
ATOM     17  O   UNL d   1       2.805   6.757  14.700  0.00  0.00    -0.359 OA
ATOM     18  H   UNL d   1       3.519   6.724  15.359  0.00  0.00     0.217 HD
ENDBRANCH  14  17
ENDBRANCH   9  10
ENDBRANCH   6   9
BRANCH   3  19
ATOM     19  C   UNL d   1       9.469   7.277   7.925  0.00  0.00     0.085 C 
BRANCH  19  20
ATOM     20  CA  UNL d   1       9.971   6.629   6.625  0.00  0.00     0.318 C 
BRANCH  20  21
ATOM     21  N   UNL d   1      11.424   6.762   6.535  0.00  0.00     0.093 N 
ATOM     22  H1  UNL d   1      11.851   6.442   7.402  0.00  0.00     0.314 HD
ATOM     23  H2  UNL d   1      11.676   7.747   6.448  0.00  0.00     0.314 HD
ENDBRANCH  20  21
BRANCH  20  24
ATOM     24  C   UNL d   1       9.395   7.301   5.391  0.00  0.00     0.174 C 
ATOM     25  OXT UNL d   1       8.462   6.866   4.729  0.00  0.00    -0.648 OA
BRANCH  24  26
ATOM     26  O   UNL d   1      10.010   8.480   5.110  0.00  0.00    -0.775 OA
ATOM     27  H   UNL d   1      10.941   8.489   5.421  0.00  0.00     0.167 HD
ENDBRANCH  24  26
ENDBRANCH  20  24
ENDBRANCH  19  20
ENDBRANCH   3  19
TORSDOF 8
ENDMDL
MODEL 3
REMARK VINA RESULT:      -5.4      1.139      2.386
REMARK  8 active torsions:
REMARK  status: ('A' for Active; 'I' for Inactive)
REMARK    1  A    between atoms: O_4  and  C_14 
REMARK    2  A    between atoms: O_4  and  C_18 
REMARK    3  A    between atoms: O_5  and  C_17 
REMARK    4  A    between atoms: O_7  and  C_23 
REMARK    5  A    between atoms: N_8  and  CA_10 
REMARK    6  A    between atoms: C_9  and  CA_10 
REMARK    7  A    between atoms: C_9  and  C_11 
REMARK    8  A    between atoms: CA_10  and  C_17 
ROOT
ATOM      1  I   UNL d   1      15.345  -6.052   6.660  0.00  0.00    -0.042 I 
ATOM      2  I   UNL d   1      12.869  -0.512   7.313  0.00  0.00    -0.042 I 
ATOM      3  C   UNL d   1      16.508  -2.040   5.548  0.00  0.00    -0.053 A 
ATOM      4  C   UNL d   1      15.486  -1.218   5.996  0.00  0.00     0.028 A 
ATOM      5  C   UNL d   1      16.466  -3.411   5.737  0.00  0.00     0.028 A 
ATOM      6  C   UNL d   1      14.336  -3.164   6.850  0.00  0.00     0.109 A 
ATOM      7  C   UNL d   1      15.373  -3.977   6.393  0.00  0.00     0.042 A 
ATOM      8  C   UNL d   1      14.393  -1.784   6.652  0.00  0.00     0.042 A 
ENDROOT
BRANCH   6   9
ATOM      9  O   UNL d   1      13.265  -3.718   7.492  0.00  0.00    -0.308 OA
BRANCH   9  10
ATOM     10  C   UNL d   1      13.278  -3.716   8.875  0.00  0.00     0.077 A 
ATOM     11  C   UNL d   1      12.111  -4.001   9.562  0.00  0.00     0.058 A 
ATOM     12  C   UNL d   1      12.125  -3.999  10.956  0.00  0.00     0.042 A 
ATOM     13  I   UNL d   1      10.350  -4.431  11.972  0.00  0.00    -0.042 I 
ATOM     14  C   UNL d   1      13.306  -3.713  11.642  0.00  0.00     0.082 A 
ATOM     15  C   UNL d   1      14.472  -3.429  10.933  0.00  0.00     0.040 A 
ATOM     16  C   UNL d   1      14.458  -3.431   9.538  0.00  0.00     0.040 A 
BRANCH  14  17
ATOM     17  O   UNL d   1      13.361  -3.701  13.004  0.00  0.00    -0.359 OA
ATOM     18  H   UNL d   1      12.462  -3.602  13.362  0.00  0.00     0.217 HD
ENDBRANCH  14  17
ENDBRANCH   9  10
ENDBRANCH   6   9
BRANCH   3  19
ATOM     19  C   UNL d   1      17.691  -1.426   4.837  0.00  0.00     0.085 C 
BRANCH  19  20
ATOM     20  CA  UNL d   1      17.708  -1.731   3.331  0.00  0.00     0.318 C 
BRANCH  20  21
ATOM     21  N   UNL d   1      18.962  -2.391   2.974  0.00  0.00     0.093 N 
ATOM     22  H1  UNL d   1      19.559  -1.739   2.468  0.00  0.00     0.314 HD
ATOM     23  H2  UNL d   1      18.777  -3.158   2.327  0.00  0.00     0.314 HD
ENDBRANCH  20  21
BRANCH  20  24
ATOM     24  C   UNL d   1      17.626  -0.469   2.492  0.00  0.00     0.174 C 
ATOM     25  OXT UNL d   1      17.144  -0.405   1.368  0.00  0.00    -0.648 OA
BRANCH  24  26
ATOM     26  O   UNL d   1      18.122   0.617   3.141  0.00  0.00    -0.775 OA
ATOM     27  H   UNL d   1      18.883   0.383   3.714  0.00  0.00     0.167 HD
ENDBRANCH  24  26
ENDBRANCH  20  24
ENDBRANCH  19  20
ENDBRANCH   3  19
TORSDOF 8
ENDMDL
MODEL 4
REMARK VINA RESULT:      -5.4     11.693     14.476
REMARK  8 active torsions:
REMARK  status: ('A' for Active; 'I' for Inactive)
REMARK    1  A    between atoms: O_4  and  C_14 
REMARK    2  A    between atoms: O_4  and  C_18 
REMARK    3  A    between atoms: O_5  and  C_17 
REMARK    4  A    between atoms: O_7  and  C_23 
REMARK    5  A    between atoms: N_8  and  CA_10 
REMARK    6  A    between atoms: C_9  and  CA_10 
REMARK    7  A    between atoms: C_9  and  C_11 
REMARK    8  A    between atoms: CA_10  and  C_17 
ROOT
ATOM      1  I   UNL d   1       5.109   5.814   6.943  0.00  0.00    -0.042 I 
ATOM      2  I   UNL d   1       8.035   3.863  11.931  0.00  0.00    -0.042 I 
ATOM      3  C   UNL d   1       4.623   6.415  11.196  0.00  0.00    -0.053 A 
ATOM      4  C   UNL d   1       5.634   5.679  11.794  0.00  0.00     0.028 A 
ATOM      5  C   UNL d   1       4.476   6.452   9.819  0.00  0.00     0.028 A 
ATOM      6  C   UNL d   1       6.387   4.989   9.604  0.00  0.00     0.109 A 
ATOM      7  C   UNL d   1       5.364   5.734   9.018  0.00  0.00     0.042 A 
ATOM      8  C   UNL d   1       6.522   4.962  10.992  0.00  0.00     0.042 A 
ENDROOT
BRANCH   6   9
ATOM      9  O   UNL d   1       7.256   4.286   8.819  0.00  0.00    -0.308 OA
BRANCH   9  10
ATOM     10  C   UNL d   1       8.295   4.985   8.232  0.00  0.00     0.077 A 
ATOM     11  C   UNL d   1       8.728   4.617   6.970  0.00  0.00     0.058 A 
ATOM     12  C   UNL d   1       9.776   5.322   6.378  0.00  0.00     0.042 A 
ATOM     13  I   UNL d   1      10.414   4.747   4.472  0.00  0.00    -0.042 I 
ATOM     14  C   UNL d   1      10.373   6.384   7.057  0.00  0.00     0.082 A 
ATOM     15  C   UNL d   1       9.923   6.742   8.327  0.00  0.00     0.040 A 
ATOM     16  C   UNL d   1       8.875   6.036   8.919  0.00  0.00     0.040 A 
BRANCH  14  17
ATOM     17  O   UNL d   1      11.399   7.099   6.513  0.00  0.00    -0.359 OA
ATOM     18  H   UNL d   1      11.314   8.032   6.773  0.00  0.00     0.217 HD
ENDBRANCH  14  17
ENDBRANCH   9  10
ENDBRANCH   6   9
BRANCH   3  19
ATOM     19  C   UNL d   1       3.661   7.191  12.064  0.00  0.00     0.085 C 
BRANCH  19  20
ATOM     20  CA  UNL d   1       2.515   6.325  12.609  0.00  0.00     0.318 C 
BRANCH  20  21
ATOM     21  N   UNL d   1       1.232   6.876  12.179  0.00  0.00     0.093 N 
ATOM     22  H1  UNL d   1       1.141   7.833  12.515  0.00  0.00     0.314 HD
ATOM     23  H2  UNL d   1       0.469   6.356  12.614  0.00  0.00     0.314 HD
ENDBRANCH  20  21
BRANCH  20  24
ATOM     24  C   UNL d   1       2.490   6.299  14.127  0.00  0.00     0.174 C 
ATOM     25  OXT UNL d   1       1.485   6.144  14.808  0.00  0.00    -0.648 OA
BRANCH  24  26
ATOM     26  O   UNL d   1       3.731   6.432  14.666  0.00  0.00    -0.775 OA
ATOM     27  H   UNL d   1       3.926   5.719  15.311  0.00  0.00     0.167 HD
ENDBRANCH  24  26
ENDBRANCH  20  24
ENDBRANCH  19  20
ENDBRANCH   3  19
TORSDOF 8
ENDMDL
MODEL 5
REMARK VINA RESULT:      -5.1     11.890     13.377
REMARK  8 active torsions:
REMARK  status: ('A' for Active; 'I' for Inactive)
REMARK    1  A    between atoms: O_4  and  C_14 
REMARK    2  A    between atoms: O_4  and  C_18 
REMARK    3  A    between atoms: O_5  and  C_17 
REMARK    4  A    between atoms: O_7  and  C_23 
REMARK    5  A    between atoms: N_8  and  CA_10 
REMARK    6  A    between atoms: C_9  and  CA_10 
REMARK    7  A    between atoms: C_9  and  C_11 
REMARK    8  A    between atoms: CA_10  and  C_17 
ROOT
ATOM      1  I   UNL d   1       3.961   6.270  12.401  0.00  0.00    -0.042 I 
ATOM      2  I   UNL d   1       9.091   5.603   9.163  0.00  0.00    -0.042 I 
ATOM      3  C   UNL d   1       5.052   6.852   8.260  0.00  0.00    -0.053 A 
ATOM      4  C   UNL d   1       6.394   6.517   8.177  0.00  0.00     0.028 A 
ATOM      5  C   UNL d   1       4.363   6.781   9.459  0.00  0.00     0.028 A 
ATOM      6  C   UNL d   1       6.385   6.023  10.542  0.00  0.00     0.109 A 
ATOM      7  C   UNL d   1       5.034   6.364  10.608  0.00  0.00     0.042 A 
ATOM      8  C   UNL d   1       7.065   6.100   9.327  0.00  0.00     0.042 A 
ENDROOT
BRANCH   6   9
ATOM      9  O   UNL d   1       7.043   5.615  11.668  0.00  0.00    -0.308 OA
BRANCH   9  10
ATOM     10  C   UNL d   1       7.226   4.255  11.843  0.00  0.00     0.077 A 
ATOM     11  C   UNL d   1       6.340   3.371  11.252  0.00  0.00     0.058 A 
ATOM     12  C   UNL d   1       6.526   2.001  11.429  0.00  0.00     0.042 A 
ATOM     13  I   UNL d   1       5.173   0.686  10.529  0.00  0.00    -0.042 I 
ATOM     14  C   UNL d   1       7.596   1.535  12.194  0.00  0.00     0.082 A 
ATOM     15  C   UNL d   1       8.480   2.440  12.780  0.00  0.00     0.040 A 
ATOM     16  C   UNL d   1       8.293   3.811  12.603  0.00  0.00     0.040 A 
BRANCH  14  17
ATOM     17  O   UNL d   1       7.813   0.203  12.390  0.00  0.00    -0.359 OA
ATOM     18  H   UNL d   1       7.243  -0.112  13.112  0.00  0.00     0.217 HD
ENDBRANCH  14  17
ENDBRANCH   9  10
ENDBRANCH   6   9
BRANCH   3  19
ATOM     19  C   UNL d   1       4.325   7.305   7.015  0.00  0.00     0.085 C 
BRANCH  19  20
ATOM     20  CA  UNL d   1       2.968   7.958   7.319  0.00  0.00     0.318 C 
BRANCH  20  21
ATOM     21  N   UNL d   1       1.928   7.341   6.498  0.00  0.00     0.093 N 
ATOM     22  H1  UNL d   1       2.318   7.073   5.596  0.00  0.00     0.314 HD
ATOM     23  H2  UNL d   1       1.199   8.025   6.293  0.00  0.00     0.314 HD
ENDBRANCH  20  21
BRANCH  20  24
ATOM     24  C   UNL d   1       2.960   9.440   6.990  0.00  0.00     0.174 C 
ATOM     25  OXT UNL d   1       2.280  10.281   7.564  0.00  0.00    -0.648 OA
BRANCH  24  26
ATOM     26  O   UNL d   1       3.832   9.753   5.995  0.00  0.00    -0.775 OA
ATOM     27  H   UNL d   1       4.219  10.646   6.118  0.00  0.00     0.167 HD
ENDBRANCH  24  26
ENDBRANCH  20  24
ENDBRANCH  19  20
ENDBRANCH   3  19
TORSDOF 8
ENDMDL
MODEL 6
REMARK VINA RESULT:      -4.9     10.395     12.968
REMARK  8 active torsions:
REMARK  status: ('A' for Active; 'I' for Inactive)
REMARK    1  A    between atoms: O_4  and  C_14 
REMARK    2  A    between atoms: O_4  and  C_18 
REMARK    3  A    between atoms: O_5  and  C_17 
REMARK    4  A    between atoms: O_7  and  C_23 
REMARK    5  A    between atoms: N_8  and  CA_10 
REMARK    6  A    between atoms: C_9  and  CA_10 
REMARK    7  A    between atoms: C_9  and  C_11 
REMARK    8  A    between atoms: CA_10  and  C_17 
ROOT
ATOM      1  I   UNL d   1       8.960   6.563   8.547  0.00  0.00    -0.042 I 
ATOM      2  I   UNL d   1       8.054   2.714  13.196  0.00  0.00    -0.042 I 
ATOM      3  C   UNL d   1       5.798   5.951  11.429  0.00  0.00    -0.053 A 
ATOM      4  C   UNL d   1       6.218   4.898  12.226  0.00  0.00     0.028 A 
ATOM      5  C   UNL d   1       6.577   6.422  10.386  0.00  0.00     0.028 A 
ATOM      6  C   UNL d   1       8.250   4.764  10.925  0.00  0.00     0.109 A 
ATOM      7  C   UNL d   1       7.811   5.825  10.132  0.00  0.00     0.042 A 
ATOM      8  C   UNL d   1       7.453   4.301  11.972  0.00  0.00     0.042 A 
ENDROOT
BRANCH   6   9
ATOM      9  O   UNL d   1       9.459   4.179  10.676  0.00  0.00    -0.308 OA
BRANCH   9  10
ATOM     10  C   UNL d   1       9.521   3.256   9.648  0.00  0.00     0.077 A 
ATOM     11  C   UNL d   1       8.418   2.463   9.382  0.00  0.00     0.058 A 
ATOM     12  C   UNL d   1       8.482   1.533   8.346  0.00  0.00     0.042 A 
ATOM     13  I   UNL d   1       6.804   0.347   7.964  0.00  0.00    -0.042 I 
ATOM     14  C   UNL d   1       9.649   1.409   7.591  0.00  0.00     0.082 A 
ATOM     15  C   UNL d   1      10.751   2.216   7.872  0.00  0.00     0.040 A 
ATOM     16  C   UNL d   1      10.686   3.147   8.909  0.00  0.00     0.040 A 
BRANCH  14  17
ATOM     17  O   UNL d   1       9.753   0.512   6.569  0.00  0.00    -0.359 OA
ATOM     18  H   UNL d   1      10.353   0.865   5.890  0.00  0.00     0.217 HD
ENDBRANCH  14  17
ENDBRANCH   9  10
ENDBRANCH   6   9
BRANCH   3  19
ATOM     19  C   UNL d   1       4.460   6.597  11.705  0.00  0.00     0.085 C 
BRANCH  19  20
ATOM     20  CA  UNL d   1       3.442   5.624  12.319  0.00  0.00     0.318 C 
BRANCH  20  21
ATOM     21  N   UNL d   1       2.252   5.554  11.473  0.00  0.00     0.093 N 
ATOM     22  H1  UNL d   1       2.205   6.381  10.880  0.00  0.00     0.314 HD
ATOM     23  H2  UNL d   1       1.413   5.582  12.053  0.00  0.00     0.314 HD
ENDBRANCH  20  21
BRANCH  20  24
ATOM     24  C   UNL d   1       2.974   6.078  13.691  0.00  0.00     0.174 C 
ATOM     25  OXT UNL d   1       1.805   6.255  14.008  0.00  0.00    -0.648 OA
BRANCH  24  26
ATOM     26  O   UNL d   1       4.005   6.238  14.561  0.00  0.00    -0.775 OA
ATOM     27  H   UNL d   1       4.733   6.767  14.171  0.00  0.00     0.167 HD
ENDBRANCH  24  26
ENDBRANCH  20  24
ENDBRANCH  19  20
ENDBRANCH   3  19
TORSDOF 8
ENDMDL
MODEL 7
REMARK VINA RESULT:      -4.9      3.506      4.514
REMARK  8 active torsions:
REMARK  status: ('A' for Active; 'I' for Inactive)
REMARK    1  A    between atoms: O_4  and  C_14 
REMARK    2  A    between atoms: O_4  and  C_18 
REMARK    3  A    between atoms: O_5  and  C_17 
REMARK    4  A    between atoms: O_7  and  C_23 
REMARK    5  A    between atoms: N_8  and  CA_10 
REMARK    6  A    between atoms: C_9  and  CA_10 
REMARK    7  A    between atoms: C_9  and  C_11 
REMARK    8  A    between atoms: CA_10  and  C_17 
ROOT
ATOM      1  I   UNL d   1      14.388  -4.132   9.939  0.00  0.00    -0.042 I 
ATOM      2  I   UNL d   1      13.164  -6.469   4.435  0.00  0.00    -0.042 I 
ATOM      3  C   UNL d   1      15.088  -2.871   5.864  0.00  0.00    -0.053 A 
ATOM      4  C   UNL d   1      14.555  -3.872   5.067  0.00  0.00     0.028 A 
ATOM      5  C   UNL d   1      15.040  -2.946   7.246  0.00  0.00     0.028 A 
ATOM      6  C   UNL d   1      13.900  -5.068   7.062  0.00  0.00     0.109 A 
ATOM      7  C   UNL d   1      14.441  -4.053   7.849  0.00  0.00     0.042 A 
ATOM      8  C   UNL d   1      13.957  -4.978   5.671  0.00  0.00     0.042 A 
ENDROOT
BRANCH   6   9
ATOM      9  O   UNL d   1      13.315  -6.153   7.652  0.00  0.00    -0.308 OA
BRANCH   9  10
ATOM     10  C   UNL d   1      14.072  -7.304   7.767  0.00  0.00     0.077 A 
ATOM     11  C   UNL d   1      15.442  -7.198   7.936  0.00  0.00     0.058 A 
ATOM     12  C   UNL d   1      16.205  -8.360   8.052  0.00  0.00     0.042 A 
ATOM     13  I   UNL d   1      18.271  -8.175   8.307  0.00  0.00    -0.042 I 
ATOM     14  C   UNL d   1      15.586  -9.609   7.996  0.00  0.00     0.082 A 
ATOM     15  C   UNL d   1      14.205  -9.697   7.826  0.00  0.00     0.040 A 
ATOM     16  C   UNL d   1      13.442  -8.534   7.710  0.00  0.00     0.040 A 
BRANCH  14  17
ATOM     17  O   UNL d   1      16.296 -10.768   8.106  0.00  0.00    -0.359 OA
ATOM     18  H   UNL d   1      16.543 -10.907   9.036  0.00  0.00     0.217 HD
ENDBRANCH  14  17
ENDBRANCH   9  10
ENDBRANCH   6   9
BRANCH   3  19
ATOM     19  C   UNL d   1      15.736  -1.673   5.211  0.00  0.00     0.085 C 
BRANCH  19  20
ATOM     20  CA  UNL d   1      17.248  -1.853   4.999  0.00  0.00     0.318 C 
BRANCH  20  21
ATOM     21  N   UNL d   1      17.926  -0.569   5.162  0.00  0.00     0.093 N 
ATOM     22  H1  UNL d   1      17.746  -0.202   6.095  0.00  0.00     0.314 HD
ATOM     23  H2  UNL d   1      17.532   0.115   4.515  0.00  0.00     0.314 HD
ENDBRANCH  20  21
BRANCH  20  24
ATOM     24  C   UNL d   1      17.574  -2.343   3.599  0.00  0.00     0.174 C 
ATOM     25  OXT UNL d   1      16.856  -2.190   2.619  0.00  0.00    -0.648 OA
BRANCH  24  26
ATOM     26  O   UNL d   1      18.788  -2.950   3.535  0.00  0.00    -0.775 OA
ATOM     27  H   UNL d   1      19.462  -2.374   3.116  0.00  0.00     0.167 HD
ENDBRANCH  24  26
ENDBRANCH  20  24
ENDBRANCH  19  20
ENDBRANCH   3  19
TORSDOF 8
ENDMDL
MODEL 8
REMARK VINA RESULT:      -4.9      1.755      1.982
REMARK  8 active torsions:
REMARK  status: ('A' for Active; 'I' for Inactive)
REMARK    1  A    between atoms: O_4  and  C_14 
REMARK    2  A    between atoms: O_4  and  C_18 
REMARK    3  A    between atoms: O_5  and  C_17 
REMARK    4  A    between atoms: O_7  and  C_23 
REMARK    5  A    between atoms: N_8  and  CA_10 
REMARK    6  A    between atoms: C_9  and  CA_10 
REMARK    7  A    between atoms: C_9  and  C_11 
REMARK    8  A    between atoms: CA_10  and  C_17 
ROOT
ATOM      1  I   UNL d   1      12.492  -0.879   8.173  0.00  0.00    -0.042 I 
ATOM      2  I   UNL d   1      13.418  -6.912   8.143  0.00  0.00    -0.042 I 
ATOM      3  C   UNL d   1      15.434  -3.506   6.404  0.00  0.00    -0.053 A 
ATOM      4  C   UNL d   1      15.068  -4.786   6.786  0.00  0.00     0.028 A 
ATOM      5  C   UNL d   1      14.702  -2.398   6.798  0.00  0.00     0.028 A 
ATOM      6  C   UNL d   1      13.190  -3.858   7.990  0.00  0.00     0.109 A 
ATOM      7  C   UNL d   1      13.572  -2.575   7.597  0.00  0.00     0.042 A 
ATOM      8  C   UNL d   1      13.938  -4.963   7.585  0.00  0.00     0.042 A 
ENDROOT
BRANCH   6   9
ATOM      9  O   UNL d   1      12.085  -4.032   8.773  0.00  0.00    -0.308 OA
BRANCH   9  10
ATOM     10  C   UNL d   1      12.282  -4.178  10.134  0.00  0.00     0.077 A 
ATOM     11  C   UNL d   1      11.310  -4.803  10.895  0.00  0.00     0.058 A 
ATOM     12  C   UNL d   1      11.510  -4.950  12.267  0.00  0.00     0.042 A 
ATOM     13  I   UNL d   1      10.027  -5.896  13.396  0.00  0.00    -0.042 I 
ATOM     14  C   UNL d   1      12.680  -4.470  12.857  0.00  0.00     0.082 A 
ATOM     15  C   UNL d   1      13.649  -3.844  12.075  0.00  0.00     0.040 A 
ATOM     16  C   UNL d   1      13.448  -3.697  10.702  0.00  0.00     0.040 A 
BRANCH  14  17
ATOM     17  O   UNL d   1      12.913  -4.594  14.195  0.00  0.00    -0.359 OA
ATOM     18  H   UNL d   1      13.706  -4.083  14.431  0.00  0.00     0.217 HD
ENDBRANCH  14  17
ENDBRANCH   9  10
ENDBRANCH   6   9
BRANCH   3  19
ATOM     19  C   UNL d   1      16.658  -3.314   5.539  0.00  0.00     0.085 C 
BRANCH  19  20
ATOM     20  CA  UNL d   1      16.331  -3.290   4.038  0.00  0.00     0.318 C 
BRANCH  20  21
ATOM     21  N   UNL d   1      16.304  -4.654   3.515  0.00  0.00     0.093 N 
ATOM     22  H1  UNL d   1      16.957  -4.736   2.738  0.00  0.00     0.314 HD
ATOM     23  H2  UNL d   1      15.383  -4.857   3.126  0.00  0.00     0.314 HD
ENDBRANCH  20  21
BRANCH  20  24
ATOM     24  C   UNL d   1      17.379  -2.538   3.237  0.00  0.00     0.174 C 
ATOM     25  OXT UNL d   1      17.139  -1.646   2.433  0.00  0.00    -0.648 OA
BRANCH  24  26
ATOM     26  O   UNL d   1      18.643  -2.939   3.535  0.00  0.00    -0.775 OA
ATOM     27  H   UNL d   1      19.124  -2.267   4.063  0.00  0.00     0.167 HD
ENDBRANCH  24  26
ENDBRANCH  20  24
ENDBRANCH  19  20
ENDBRANCH   3  19
TORSDOF 8
ENDMDL
MODEL 9
REMARK VINA RESULT:      -4.9     11.296     12.569
REMARK  8 active torsions:
REMARK  status: ('A' for Active; 'I' for Inactive)
REMARK    1  A    between atoms: O_4  and  C_14 
REMARK    2  A    between atoms: O_4  and  C_18 
REMARK    3  A    between atoms: O_5  and  C_17 
REMARK    4  A    between atoms: O_7  and  C_23 
REMARK    5  A    between atoms: N_8  and  CA_10 
REMARK    6  A    between atoms: C_9  and  CA_10 
REMARK    7  A    between atoms: C_9  and  C_11 
REMARK    8  A    between atoms: CA_10  and  C_17 
ROOT
ATOM      1  I   UNL d   1       6.306   2.467  13.295  0.00  0.00    -0.042 I 
ATOM      2  I   UNL d   1       4.567   6.100   8.710  0.00  0.00    -0.042 I 
ATOM      3  C   UNL d   1       8.347   5.132  10.572  0.00  0.00    -0.053 A 
ATOM      4  C   UNL d   1       7.358   5.664   9.759  0.00  0.00     0.028 A 
ATOM      5  C   UNL d   1       8.047   4.226  11.575  0.00  0.00     0.028 A 
ATOM      6  C   UNL d   1       5.714   4.365  10.963  0.00  0.00     0.109 A 
ATOM      7  C   UNL d   1       6.721   3.840  11.772  0.00  0.00     0.042 A 
ATOM      8  C   UNL d   1       6.033   5.277   9.956  0.00  0.00     0.042 A 
ENDROOT
BRANCH   6   9
ATOM      9  O   UNL d   1       4.416   3.986  11.154  0.00  0.00    -0.308 OA
BRANCH   9  10
ATOM     10  C   UNL d   1       3.687   4.665  12.114  0.00  0.00     0.077 A 
ATOM     11  C   UNL d   1       2.459   4.165  12.510  0.00  0.00     0.058 A 
ATOM     12  C   UNL d   1       1.725   4.850  13.478  0.00  0.00     0.042 A 
ATOM     13  I   UNL d   1      -0.128   4.077  14.058  0.00  0.00    -0.042 I 
ATOM     14  C   UNL d   1       2.231   6.025  14.035  0.00  0.00     0.082 A 
ATOM     15  C   UNL d   1       3.471   6.513  13.625  0.00  0.00     0.040 A 
ATOM     16  C   UNL d   1       4.205   5.828  12.657  0.00  0.00     0.040 A 
BRANCH  14  17
ATOM     17  O   UNL d   1       1.546   6.724  14.984  0.00  0.00    -0.359 OA
ATOM     18  H   UNL d   1       2.075   7.491  15.263  0.00  0.00     0.217 HD
ENDBRANCH  14  17
ENDBRANCH   9  10
ENDBRANCH   6   9
BRANCH   3  19
ATOM     19  C   UNL d   1       9.783   5.551  10.358  0.00  0.00     0.085 C 
BRANCH  19  20
ATOM     20  CA  UNL d   1      10.478   4.755   9.243  0.00  0.00     0.318 C 
BRANCH  20  21
ATOM     21  N   UNL d   1      11.870   4.502   9.609  0.00  0.00     0.093 N 
ATOM     22  H1  UNL d   1      12.405   4.263   8.775  0.00  0.00     0.314 HD
ATOM     23  H2  UNL d   1      11.924   3.685  10.217  0.00  0.00     0.314 HD
ENDBRANCH  20  21
BRANCH  20  24
ATOM     24  C   UNL d   1      10.504   5.516   7.929  0.00  0.00     0.174 C 
ATOM     25  OXT UNL d   1      11.234   6.469   7.687  0.00  0.00    -0.648 OA
BRANCH  24  26
ATOM     26  O   UNL d   1       9.641   4.999   7.015  0.00  0.00    -0.775 OA
ATOM     27  H   UNL d   1       8.736   5.362   7.122  0.00  0.00     0.167 HD
ENDBRANCH  24  26
ENDBRANCH  20  24
ENDBRANCH  19  20
ENDBRANCH   3  19
TORSDOF 8
ENDMDL
