MODEL 1
REMARK VINA RESULT:      -4.9      0.000      0.000
REMARK  2 active torsions:
REMARK  status: ('A' for Active; 'I' for Inactive)
REMARK    1  A    between atoms: O_11  and  C_12 
REMARK    2  A    between atoms: O_11  and  C_13 
ROOT
ATOM      1  O   UNL d   1      16.477  -5.124   7.096  0.00  0.00    -0.305 OA
ENDROOT
BRANCH   1   2
ATOM      2  C   UNL d   1      15.681  -3.994   7.119  0.00  0.00     0.113 A 
ATOM      3  C   UNL d   1      15.719  -3.112   6.049  0.00  0.00     0.065 A 
ATOM      4 BR   UNL d   1      16.890  -3.518   4.589  0.00  0.00    -0.046 Br
ATOM      5  C   UNL d   1      14.917  -1.970   6.073  0.00  0.00     0.050 A 
ATOM      6 BR   UNL d   1      14.976  -0.747   4.590  0.00  0.00    -0.048 Br
ATOM      7  C   UNL d   1      14.086  -1.725   7.166  0.00  0.00     0.048 A 
ATOM      8 BR   UNL d   1      12.982  -0.148   7.199  0.00  0.00    -0.048 Br
ATOM      9  C   UNL d   1      14.057  -2.620   8.234  0.00  0.00     0.050 A 
ATOM     10 BR   UNL d   1      12.918  -2.300   9.750  0.00  0.00    -0.048 Br
ATOM     11  C   UNL d   1      14.859  -3.761   8.211  0.00  0.00     0.065 A 
ATOM     12 BR   UNL d   1      14.875  -5.037   9.638  0.00  0.00    -0.046 Br
ENDBRANCH   1   2
BRANCH   1  13
ATOM     13  C   UNL d   1      15.881  -6.321   7.376  0.00  0.00     0.113 A 
ATOM     14  C   UNL d   1      16.429  -7.166   8.342  0.00  0.00     0.065 A 
ATOM     15 BR   UNL d   1      18.018  -6.573   9.232  0.00  0.00    -0.046 Br
ATOM     16  C   UNL d   1      15.822  -8.389   8.625  0.00  0.00     0.050 A 
ATOM     17 BR   UNL d   1      16.596  -9.538   9.958  0.00  0.00    -0.048 Br
ATOM     18  C   UNL d   1      14.667  -8.768   7.942  0.00  0.00     0.048 A 
ATOM     19 BR   UNL d   1      13.831 -10.458   8.330  0.00  0.00    -0.048 Br
ATOM     20  C   UNL d   1      14.119  -7.925   6.976  0.00  0.00     0.050 A 
ATOM     21 BR   UNL d   1      12.527  -8.430   6.023  0.00  0.00    -0.048 Br
ATOM     22  C   UNL d   1      14.726  -6.702   6.692  0.00  0.00     0.065 A 
ATOM     23 BR   UNL d   1      14.035  -5.489   5.382  0.00  0.00    -0.046 Br
ENDBRANCH   1  13
TORSDOF 2
ENDMDL
MODEL 2
REMARK VINA RESULT:      -4.9      0.006      6.510
REMARK  2 active torsions:
REMARK  status: ('A' for Active; 'I' for Inactive)
REMARK    1  A    between atoms: O_11  and  C_12 
REMARK    2  A    between atoms: O_11  and  C_13 
ROOT
ATOM      1  O   UNL d   1      16.478  -5.123   7.096  0.00  0.00    -0.305 OA
ENDROOT
BRANCH   1   2
ATOM      2  C   UNL d   1      15.874  -6.334   7.378  0.00  0.00     0.113 A 
ATOM      3  C   UNL d   1      16.428  -7.164   8.341  0.00  0.00     0.065 A 
ATOM      4 BR   UNL d   1      18.017  -6.573   9.232  0.00  0.00    -0.046 Br
ATOM      5  C   UNL d   1      15.820  -8.388   8.623  0.00  0.00     0.050 A 
ATOM      6 BR   UNL d   1      16.593  -9.537   9.957  0.00  0.00    -0.048 Br
ATOM      7  C   UNL d   1      14.665  -8.767   7.940  0.00  0.00     0.048 A 
ATOM      8 BR   UNL d   1      13.828 -10.457   8.328  0.00  0.00    -0.048 Br
ATOM      9  C   UNL d   1      14.119  -7.923   6.974  0.00  0.00     0.050 A 
ATOM     10 BR   UNL d   1      12.527  -8.427   6.020  0.00  0.00    -0.048 Br
ATOM     11  C   UNL d   1      14.726  -6.700   6.690  0.00  0.00     0.065 A 
ATOM     12 BR   UNL d   1      14.036  -5.487   5.379  0.00  0.00    -0.046 Br
ENDBRANCH   1   2
BRANCH   1  13
ATOM     13  C   UNL d   1      15.691  -4.006   7.116  0.00  0.00     0.113 A 
ATOM     14  C   UNL d   1      15.720  -3.111   6.047  0.00  0.00     0.065 A 
ATOM     15 BR   UNL d   1      16.890  -3.520   4.586  0.00  0.00    -0.046 Br
ATOM     16  C   UNL d   1      14.918  -1.970   6.070  0.00  0.00     0.050 A 
ATOM     17 BR   UNL d   1      14.977  -0.749   4.586  0.00  0.00    -0.048 Br
ATOM     18  C   UNL d   1      14.088  -1.723   7.162  0.00  0.00     0.048 A 
ATOM     19 BR   UNL d   1      12.984  -0.146   7.194  0.00  0.00    -0.048 Br
ATOM     20  C   UNL d   1      14.058  -2.617   8.232  0.00  0.00     0.050 A 
ATOM     21 BR   UNL d   1      12.920  -2.295   9.747  0.00  0.00    -0.048 Br
ATOM     22  C   UNL d   1      14.860  -3.758   8.210  0.00  0.00     0.065 A 
ATOM     23 BR   UNL d   1      14.875  -5.033   9.638  0.00  0.00    -0.046 Br
ENDBRANCH   1  13
TORSDOF 2
ENDMDL
MODEL 3
REMARK VINA RESULT:      -4.9      0.012      2.584
REMARK  2 active torsions:
REMARK  status: ('A' for Active; 'I' for Inactive)
REMARK    1  A    between atoms: O_11  and  C_12 
REMARK    2  A    between atoms: O_11  and  C_13 
ROOT
ATOM      1  O   UNL d   1      16.480  -5.126   7.096  0.00  0.00    -0.305 OA
ENDROOT
BRANCH   1   2
ATOM      2  C   UNL d   1      15.681  -3.997   7.122  0.00  0.00     0.113 A 
ATOM      3  C   UNL d   1      15.718  -3.110   6.057  0.00  0.00     0.065 A 
ATOM      4 BR   UNL d   1      16.890  -3.507   4.595  0.00  0.00    -0.046 Br
ATOM      5  C   UNL d   1      14.914  -1.970   6.085  0.00  0.00     0.050 A 
ATOM      6 BR   UNL d   1      14.970  -0.741   4.608  0.00  0.00    -0.048 Br
ATOM      7  C   UNL d   1      14.082  -1.731   7.179  0.00  0.00     0.048 A 
ATOM      8 BR   UNL d   1      12.974  -0.157   7.219  0.00  0.00    -0.048 Br
ATOM      9  C   UNL d   1      14.054  -2.631   8.243  0.00  0.00     0.050 A 
ATOM     10 BR   UNL d   1      12.914  -2.320   9.760  0.00  0.00    -0.048 Br
ATOM     11  C   UNL d   1      14.858  -3.771   8.216  0.00  0.00     0.065 A 
ATOM     12 BR   UNL d   1      14.876  -5.053   9.637  0.00  0.00    -0.046 Br
ENDBRANCH   1   2
BRANCH   1  13
ATOM     13  C   UNL d   1      15.887  -6.325   7.371  0.00  0.00     0.113 A 
ATOM     14  C   UNL d   1      14.729  -6.704   6.690  0.00  0.00     0.065 A 
ATOM     15 BR   UNL d   1      14.036  -5.487   5.384  0.00  0.00    -0.046 Br
ATOM     16  C   UNL d   1      14.123  -7.927   6.974  0.00  0.00     0.050 A 
ATOM     17 BR   UNL d   1      12.527  -8.428   6.026  0.00  0.00    -0.048 Br
ATOM     18  C   UNL d   1      14.672  -8.772   7.938  0.00  0.00     0.048 A 
ATOM     19 BR   UNL d   1      13.832 -10.459   8.331  0.00  0.00    -0.048 Br
ATOM     20  C   UNL d   1      15.828  -8.393   8.619  0.00  0.00     0.050 A 
ATOM     21 BR   UNL d   1      16.602  -9.543   9.952  0.00  0.00    -0.048 Br
ATOM     22  C   UNL d   1      16.435  -7.170   8.336  0.00  0.00     0.065 A 
ATOM     23 BR   UNL d   1      18.025  -6.579   9.226  0.00  0.00    -0.046 Br
ENDBRANCH   1  13
TORSDOF 2
ENDMDL
MODEL 4
REMARK VINA RESULT:      -4.9      0.011      6.070
REMARK  2 active torsions:
REMARK  status: ('A' for Active; 'I' for Inactive)
REMARK    1  A    between atoms: O_11  and  C_12 
REMARK    2  A    between atoms: O_11  and  C_13 
ROOT
ATOM      1  O   UNL d   1      16.485  -5.128   7.094  0.00  0.00    -0.305 OA
ENDROOT
BRANCH   1   2
ATOM      2  C   UNL d   1      15.881  -6.339   7.374  0.00  0.00     0.113 A 
ATOM      3  C   UNL d   1      14.732  -6.704   6.688  0.00  0.00     0.065 A 
ATOM      4 BR   UNL d   1      14.044  -5.489   5.376  0.00  0.00    -0.046 Br
ATOM      5  C   UNL d   1      14.121  -7.925   6.973  0.00  0.00     0.050 A 
ATOM      6 BR   UNL d   1      12.527  -8.426   6.022  0.00  0.00    -0.048 Br
ATOM      7  C   UNL d   1      14.666  -8.768   7.941  0.00  0.00     0.048 A 
ATOM      8 BR   UNL d   1      13.821 -10.452   8.337  0.00  0.00    -0.048 Br
ATOM      9  C   UNL d   1      15.821  -8.390   8.625  0.00  0.00     0.050 A 
ATOM     10 BR   UNL d   1      16.589  -9.537   9.963  0.00  0.00    -0.048 Br
ATOM     11  C   UNL d   1      16.433  -7.168   8.340  0.00  0.00     0.065 A 
ATOM     12 BR   UNL d   1      18.020  -6.579   9.233  0.00  0.00    -0.046 Br
ENDBRANCH   1   2
BRANCH   1  13
ATOM     13  C   UNL d   1      15.700  -4.010   7.120  0.00  0.00     0.113 A 
ATOM     14  C   UNL d   1      14.866  -3.768   8.212  0.00  0.00     0.065 A 
ATOM     15 BR   UNL d   1      14.881  -5.051   9.634  0.00  0.00    -0.046 Br
ATOM     16  C   UNL d   1      14.063  -2.628   8.237  0.00  0.00     0.050 A 
ATOM     17 BR   UNL d   1      12.919  -2.316   9.751  0.00  0.00    -0.048 Br
ATOM     18  C   UNL d   1      14.092  -1.731   7.171  0.00  0.00     0.048 A 
ATOM     19 BR   UNL d   1      12.981  -0.159   7.205  0.00  0.00    -0.048 Br
ATOM     20  C   UNL d   1      14.925  -1.972   6.079  0.00  0.00     0.050 A 
ATOM     21 BR   UNL d   1      14.981  -0.747   4.598  0.00  0.00    -0.048 Br
ATOM     22  C   UNL d   1      15.729  -3.112   6.053  0.00  0.00     0.065 A 
ATOM     23 BR   UNL d   1      16.899  -3.513   4.591  0.00  0.00    -0.046 Br
ENDBRANCH   1  13
TORSDOF 2
ENDMDL
MODEL 5
REMARK VINA RESULT:      -4.9      0.012      2.584
REMARK  2 active torsions:
REMARK  status: ('A' for Active; 'I' for Inactive)
REMARK    1  A    between atoms: O_11  and  C_12 
REMARK    2  A    between atoms: O_11  and  C_13 
ROOT
ATOM      1  O   UNL d   1      16.479  -5.124   7.099  0.00  0.00    -0.305 OA
ENDROOT
BRANCH   1   2
ATOM      2  C   UNL d   1      15.684  -3.994   7.126  0.00  0.00     0.113 A 
ATOM      3  C   UNL d   1      14.859  -3.767   8.218  0.00  0.00     0.065 A 
ATOM      4 BR   UNL d   1      14.873  -5.051   9.639  0.00  0.00    -0.046 Br
ATOM      5  C   UNL d   1      14.054  -2.628   8.245  0.00  0.00     0.050 A 
ATOM      6 BR   UNL d   1      12.910  -2.318   9.759  0.00  0.00    -0.048 Br
ATOM      7  C   UNL d   1      14.083  -1.728   7.179  0.00  0.00     0.048 A 
ATOM      8 BR   UNL d   1      12.971  -0.158   7.215  0.00  0.00    -0.048 Br
ATOM      9  C   UNL d   1      14.917  -1.968   6.088  0.00  0.00     0.050 A 
ATOM     10 BR   UNL d   1      14.972  -0.741   4.608  0.00  0.00    -0.048 Br
ATOM     11  C   UNL d   1      15.722  -3.108   6.060  0.00  0.00     0.065 A 
ATOM     12 BR   UNL d   1      16.892  -3.506   4.599  0.00  0.00    -0.046 Br
ENDBRANCH   1   2
BRANCH   1  13
ATOM     13  C   UNL d   1      15.884  -6.322   7.378  0.00  0.00     0.113 A 
ATOM     14  C   UNL d   1      16.435  -7.167   8.342  0.00  0.00     0.065 A 
ATOM     15 BR   UNL d   1      18.026  -6.576   9.229  0.00  0.00    -0.046 Br
ATOM     16  C   UNL d   1      15.828  -8.390   8.625  0.00  0.00     0.050 A 
ATOM     17 BR   UNL d   1      16.605  -9.541   9.955  0.00  0.00    -0.048 Br
ATOM     18  C   UNL d   1      14.671  -8.769   7.945  0.00  0.00     0.048 A 
ATOM     19 BR   UNL d   1      13.836 -10.460   8.334  0.00  0.00    -0.048 Br
ATOM     20  C   UNL d   1      14.121  -7.925   6.981  0.00  0.00     0.050 A 
ATOM     21 BR   UNL d   1      12.526  -8.429   6.032  0.00  0.00    -0.048 Br
ATOM     22  C   UNL d   1      14.727  -6.702   6.697  0.00  0.00     0.065 A 
ATOM     23 BR   UNL d   1      14.033  -5.487   5.390  0.00  0.00    -0.046 Br
ENDBRANCH   1  13
TORSDOF 2
ENDMDL
MODEL 6
REMARK VINA RESULT:      -4.9      0.016      6.295
REMARK  2 active torsions:
REMARK  status: ('A' for Active; 'I' for Inactive)
REMARK    1  A    between atoms: O_11  and  C_12 
REMARK    2  A    between atoms: O_11  and  C_13 
ROOT
ATOM      1  O   UNL d   1      16.483  -5.124   7.099  0.00  0.00    -0.305 OA
ENDROOT
BRANCH   1   2
ATOM      2  C   UNL d   1      15.884  -6.338   7.378  0.00  0.00     0.113 A 
ATOM      3  C   UNL d   1      14.734  -6.704   6.694  0.00  0.00     0.065 A 
ATOM      4 BR   UNL d   1      14.038  -5.487   5.389  0.00  0.00    -0.046 Br
ATOM      5  C   UNL d   1      14.128  -7.929   6.976  0.00  0.00     0.050 A 
ATOM      6 BR   UNL d   1      12.533  -8.431   6.029  0.00  0.00    -0.048 Br
ATOM      7  C   UNL d   1      14.679  -8.774   7.940  0.00  0.00     0.048 A 
ATOM      8 BR   UNL d   1      13.842 -10.462   8.331  0.00  0.00    -0.048 Br
ATOM      9  C   UNL d   1      15.836  -8.394   8.620  0.00  0.00     0.050 A 
ATOM     10 BR   UNL d   1      16.612  -9.544   9.952  0.00  0.00    -0.048 Br
ATOM     11  C   UNL d   1      16.442  -7.169   8.338  0.00  0.00     0.065 A 
ATOM     12 BR   UNL d   1      18.030  -6.578   9.228  0.00  0.00    -0.046 Br
ENDBRANCH   1   2
BRANCH   1  13
ATOM     13  C   UNL d   1      15.693  -4.010   7.125  0.00  0.00     0.113 A 
ATOM     14  C   UNL d   1      15.720  -3.110   6.060  0.00  0.00     0.065 A 
ATOM     15 BR   UNL d   1      16.893  -3.507   4.599  0.00  0.00    -0.046 Br
ATOM     16  C   UNL d   1      14.915  -1.971   6.088  0.00  0.00     0.050 A 
ATOM     17 BR   UNL d   1      14.971  -0.742   4.611  0.00  0.00    -0.048 Br
ATOM     18  C   UNL d   1      14.082  -1.733   7.181  0.00  0.00     0.048 A 
ATOM     19 BR   UNL d   1      12.973  -0.160   7.220  0.00  0.00    -0.048 Br
ATOM     20  C   UNL d   1      14.054  -2.632   8.246  0.00  0.00     0.050 A 
ATOM     21 BR   UNL d   1      12.913  -2.322   9.762  0.00  0.00    -0.048 Br
ATOM     22  C   UNL d   1      14.860  -3.771   8.219  0.00  0.00     0.065 A 
ATOM     23 BR   UNL d   1      14.878  -5.053   9.640  0.00  0.00    -0.046 Br
ENDBRANCH   1  13
TORSDOF 2
ENDMDL
MODEL 7
REMARK VINA RESULT:      -4.9      0.012      3.655
REMARK  2 active torsions:
REMARK  status: ('A' for Active; 'I' for Inactive)
REMARK    1  A    between atoms: O_11  and  C_12 
REMARK    2  A    between atoms: O_11  and  C_13 
ROOT
ATOM      1  O   UNL d   1      16.483  -5.125   7.089  0.00  0.00    -0.305 OA
ENDROOT
BRANCH   1   2
ATOM      2  C   UNL d   1      15.687  -3.995   7.118  0.00  0.00     0.113 A 
ATOM      3  C   UNL d   1      14.863  -3.769   8.211  0.00  0.00     0.065 A 
ATOM      4 BR   UNL d   1      14.878  -5.055   9.630  0.00  0.00    -0.046 Br
ATOM      5  C   UNL d   1      14.058  -2.630   8.239  0.00  0.00     0.050 A 
ATOM      6 BR   UNL d   1      12.915  -2.322   9.754  0.00  0.00    -0.048 Br
ATOM      7  C   UNL d   1      14.087  -1.730   7.175  0.00  0.00     0.048 A 
ATOM      8 BR   UNL d   1      12.974  -0.159   7.213  0.00  0.00    -0.048 Br
ATOM      9  C   UNL d   1      14.920  -1.968   6.082  0.00  0.00     0.050 A 
ATOM     10 BR   UNL d   1      14.974  -0.739   4.604  0.00  0.00    -0.048 Br
ATOM     11  C   UNL d   1      15.724  -3.108   6.053  0.00  0.00     0.065 A 
ATOM     12 BR   UNL d   1      16.894  -3.504   4.590  0.00  0.00    -0.046 Br
ENDBRANCH   1   2
BRANCH   1  13
ATOM     13  C   UNL d   1      15.887  -6.323   7.365  0.00  0.00     0.113 A 
ATOM     14  C   UNL d   1      14.730  -6.701   6.684  0.00  0.00     0.065 A 
ATOM     15 BR   UNL d   1      14.039  -5.484   5.376  0.00  0.00    -0.046 Br
ATOM     16  C   UNL d   1      14.121  -7.923   6.968  0.00  0.00     0.050 A 
ATOM     17 BR   UNL d   1      12.524  -8.422   6.019  0.00  0.00    -0.048 Br
ATOM     18  C   UNL d   1      14.668  -8.768   7.933  0.00  0.00     0.048 A 
ATOM     19 BR   UNL d   1      13.825 -10.453   8.327  0.00  0.00    -0.048 Br
ATOM     20  C   UNL d   1      15.824  -8.390   8.614  0.00  0.00     0.050 A 
ATOM     21 BR   UNL d   1      16.596  -9.540   9.949  0.00  0.00    -0.048 Br
ATOM     22  C   UNL d   1      16.434  -7.168   8.331  0.00  0.00     0.065 A 
ATOM     23 BR   UNL d   1      18.024  -6.580   9.221  0.00  0.00    -0.046 Br
ENDBRANCH   1  13
TORSDOF 2
ENDMDL
MODEL 8
REMARK VINA RESULT:      -4.9      0.010      6.293
REMARK  2 active torsions:
REMARK  status: ('A' for Active; 'I' for Inactive)
REMARK    1  A    between atoms: O_11  and  C_12 
REMARK    2  A    between atoms: O_11  and  C_13 
ROOT
ATOM      1  O   UNL d   1      16.478  -5.122   7.095  0.00  0.00    -0.305 OA
ENDROOT
BRANCH   1   2
ATOM      2  C   UNL d   1      15.875  -6.333   7.378  0.00  0.00     0.113 A 
ATOM      3  C   UNL d   1      16.431  -7.164   8.339  0.00  0.00     0.065 A 
ATOM      4 BR   UNL d   1      18.023  -6.575   9.226  0.00  0.00    -0.046 Br
ATOM      5  C   UNL d   1      15.823  -8.388   8.623  0.00  0.00     0.050 A 
ATOM      6 BR   UNL d   1      16.599  -9.539   9.953  0.00  0.00    -0.048 Br
ATOM      7  C   UNL d   1      14.666  -8.766   7.942  0.00  0.00     0.048 A 
ATOM      8 BR   UNL d   1      13.829 -10.456   8.332  0.00  0.00    -0.048 Br
ATOM      9  C   UNL d   1      14.117  -7.921   6.978  0.00  0.00     0.050 A 
ATOM     10 BR   UNL d   1      12.522  -8.424   6.029  0.00  0.00    -0.048 Br
ATOM     11  C   UNL d   1      14.725  -6.698   6.694  0.00  0.00     0.065 A 
ATOM     12 BR   UNL d   1      14.032  -5.484   5.386  0.00  0.00    -0.046 Br
ENDBRANCH   1   2
BRANCH   1  13
ATOM     13  C   UNL d   1      15.693  -4.005   7.122  0.00  0.00     0.113 A 
ATOM     14  C   UNL d   1      14.859  -3.764   8.215  0.00  0.00     0.065 A 
ATOM     15 BR   UNL d   1      14.874  -5.047   9.636  0.00  0.00    -0.046 Br
ATOM     16  C   UNL d   1      14.056  -2.624   8.240  0.00  0.00     0.050 A 
ATOM     17 BR   UNL d   1      12.912  -2.313   9.755  0.00  0.00    -0.048 Br
ATOM     18  C   UNL d   1      14.085  -1.726   7.174  0.00  0.00     0.048 A 
ATOM     19 BR   UNL d   1      12.973  -0.155   7.210  0.00  0.00    -0.048 Br
ATOM     20  C   UNL d   1      14.918  -1.967   6.082  0.00  0.00     0.050 A 
ATOM     21 BR   UNL d   1      14.973  -0.740   4.602  0.00  0.00    -0.048 Br
ATOM     22  C   UNL d   1      15.721  -3.106   6.056  0.00  0.00     0.065 A 
ATOM     23 BR   UNL d   1      16.892  -3.506   4.594  0.00  0.00    -0.046 Br
ENDBRANCH   1  13
TORSDOF 2
ENDMDL
MODEL 9
REMARK VINA RESULT:      -4.8     11.667     13.662
REMARK  2 active torsions:
REMARK  status: ('A' for Active; 'I' for Inactive)
REMARK    1  A    between atoms: O_11  and  C_12 
REMARK    2  A    between atoms: O_11  and  C_13 
ROOT
ATOM      1  O   UNL d   1       8.499   4.407   9.787  0.00  0.00    -0.305 OA
ENDROOT
BRANCH   1   2
ATOM      2  C   UNL d   1       8.149   4.328   8.453  0.00  0.00     0.113 A 
ATOM      3  C   UNL d   1       7.270   3.340   8.035  0.00  0.00     0.065 A 
ATOM      4 BR   UNL d   1       6.588   2.128   9.352  0.00  0.00    -0.046 Br
ATOM      5  C   UNL d   1       6.918   3.258   6.687  0.00  0.00     0.050 A 
ATOM      6 BR   UNL d   1       5.703   1.884   6.112  0.00  0.00    -0.048 Br
ATOM      7  C   UNL d   1       7.449   4.167   5.772  0.00  0.00     0.048 A 
ATOM      8 BR   UNL d   1       6.966   4.053   3.912  0.00  0.00    -0.048 Br
ATOM      9  C   UNL d   1       8.332   5.156   6.205  0.00  0.00     0.050 A 
ATOM     10 BR   UNL d   1       9.075   6.419   4.959  0.00  0.00    -0.048 Br
ATOM     11  C   UNL d   1       8.684   5.238   7.552  0.00  0.00     0.065 A 
ATOM     12 BR   UNL d   1       9.887   6.567   8.223  0.00  0.00    -0.046 Br
ENDBRANCH   1   2
BRANCH   1  13
ATOM     13  C   UNL d   1       7.487   4.468  10.702  0.00  0.00     0.113 A 
ATOM     14  C   UNL d   1       6.493   5.439  10.581  0.00  0.00     0.065 A 
ATOM     15 BR   UNL d   1       6.620   6.651   9.103  0.00  0.00    -0.046 Br
ATOM     16  C   UNL d   1       5.461   5.502  11.517  0.00  0.00     0.050 A 
ATOM     17 BR   UNL d   1       4.104   6.851  11.333  0.00  0.00    -0.048 Br
ATOM     18  C   UNL d   1       5.422   4.595  12.575  0.00  0.00     0.048 A 
ATOM     19 BR   UNL d   1       4.000   4.684  13.869  0.00  0.00    -0.048 Br
ATOM     20  C   UNL d   1       6.416   3.624  12.697  0.00  0.00     0.050 A 
ATOM     21 BR   UNL d   1       6.381   2.362  14.148  0.00  0.00    -0.048 Br
ATOM     22  C   UNL d   1       7.448   3.560  11.762  0.00  0.00     0.065 A 
ATOM     23 BR   UNL d   1       8.847   2.256  11.859  0.00  0.00    -0.046 Br
ENDBRANCH   1  13
TORSDOF 2
ENDMDL
