MODEL 1
REMARK VINA RESULT:      -3.5      0.000      0.000
REMARK  12 active torsions:
REMARK  status: ('A' for Active; 'I' for Inactive)
REMARK    1  A    between atoms: P_4  and  O_5 
REMARK    2  A    between atoms: P_4  and  O_6 
REMARK    3  A    between atoms: P_4  and  O_7 
REMARK    4  A    between atoms: O_5  and  C_9 
REMARK    5  A    between atoms: O_6  and  C_10 
REMARK    6  A    between atoms: O_7  and  C_11 
REMARK    7  A    between atoms: C_9  and  C_12 
REMARK    8  A    between atoms: C_10  and  C_13 
REMARK    9  A    between atoms: C_11  and  C_14 
REMARK   10  A    between atoms: C_12  and  C_15 
REMARK   11  A    between atoms: C_13  and  C_16 
REMARK   12  A    between atoms: C_14  and  C_17 
ROOT
ATOM      1  P   UNL d   1       8.203   2.530  12.660  0.00  0.00     0.477 P 
ATOM      2  O   UNL d   1       8.581   2.067  14.039  0.00  0.00    -0.227 OA
ENDROOT
BRANCH   1   3
ATOM      3  O   UNL d   1       9.410   2.470  11.581  0.00  0.00    -0.292 OA
BRANCH   3   4
ATOM      4  C   UNL d   1       9.493   1.391  10.664  0.00  0.00     0.181 C 
BRANCH   4   5
ATOM      5  C   UNL d   1      10.386   1.806   9.501  0.00  0.00     0.042 C 
BRANCH   5   6
ATOM      6  C   UNL d   1      10.101   3.210   8.985  0.00  0.00     0.116 C 
ATOM      7 CL   UNL d   1      11.285   4.394   9.583  0.00  0.00    -0.130 Cl
ENDBRANCH   5   6
ENDBRANCH   4   5
ENDBRANCH   3   4
ENDBRANCH   1   3
BRANCH   1   8
ATOM      8  O   UNL d   1       7.666   4.056  12.584  0.00  0.00    -0.292 OA
BRANCH   8   9
ATOM      9  C   UNL d   1       8.394   4.989  11.804  0.00  0.00     0.181 C 
BRANCH   9  10
ATOM     10  C   UNL d   1       7.413   5.969  11.171  0.00  0.00     0.042 C 
BRANCH  10  11
ATOM     11  C   UNL d   1       5.963   5.504  11.229  0.00  0.00     0.116 C 
ATOM     12 CL   UNL d   1       4.995   6.481  12.357  0.00  0.00    -0.130 Cl
ENDBRANCH  10  11
ENDBRANCH   9  10
ENDBRANCH   8   9
ENDBRANCH   1   8
BRANCH   1  13
ATOM     13  O   UNL d   1       7.002   1.688  11.972  0.00  0.00    -0.292 OA
BRANCH  13  14
ATOM     14  C   UNL d   1       5.982   1.163  12.804  0.00  0.00     0.181 C 
BRANCH  14  15
ATOM     15  C   UNL d   1       4.638   1.701  12.329  0.00  0.00     0.042 C 
BRANCH  15  16
ATOM     16  C   UNL d   1       4.143   2.899  13.128  0.00  0.00     0.116 C 
ATOM     17 CL   UNL d   1       5.018   3.082  14.665  0.00  0.00    -0.130 Cl
ENDBRANCH  15  16
ENDBRANCH  14  15
ENDBRANCH  13  14
ENDBRANCH   1  13
TORSDOF 12
ENDMDL
MODEL 2
REMARK VINA RESULT:      -3.4      1.712      4.250
REMARK  12 active torsions:
REMARK  status: ('A' for Active; 'I' for Inactive)
REMARK    1  A    between atoms: P_4  and  O_5 
REMARK    2  A    between atoms: P_4  and  O_6 
REMARK    3  A    between atoms: P_4  and  O_7 
REMARK    4  A    between atoms: O_5  and  C_9 
REMARK    5  A    between atoms: O_6  and  C_10 
REMARK    6  A    between atoms: O_7  and  C_11 
REMARK    7  A    between atoms: C_9  and  C_12 
REMARK    8  A    between atoms: C_10  and  C_13 
REMARK    9  A    between atoms: C_11  and  C_14 
REMARK   10  A    between atoms: C_12  and  C_15 
REMARK   11  A    between atoms: C_13  and  C_16 
REMARK   12  A    between atoms: C_14  and  C_17 
ROOT
ATOM      1  P   UNL d   1       7.963   2.802  12.560  0.00  0.00     0.477 P 
ATOM      2  O   UNL d   1       8.587   1.973  13.646  0.00  0.00    -0.227 OA
ENDROOT
BRANCH   1   3
ATOM      3  O   UNL d   1       8.305   4.384  12.646  0.00  0.00    -0.292 OA
BRANCH   3   4
ATOM      4  C   UNL d   1       8.657   5.101  11.475  0.00  0.00     0.181 C 
BRANCH   4   5
ATOM      5  C   UNL d   1       7.520   6.053  11.124  0.00  0.00     0.042 C 
BRANCH   5   6
ATOM      6  C   UNL d   1       7.027   5.911   9.691  0.00  0.00     0.116 C 
ATOM      7 CL   UNL d   1       6.126   4.398   9.442  0.00  0.00    -0.130 Cl
ENDBRANCH   5   6
ENDBRANCH   4   5
ENDBRANCH   3   4
ENDBRANCH   1   3
BRANCH   1   8
ATOM      8  O   UNL d   1       6.345   2.740  12.509  0.00  0.00    -0.292 OA
BRANCH   8   9
ATOM      9  C   UNL d   1       5.610   3.498  13.454  0.00  0.00     0.181 C 
BRANCH   9  10
ATOM     10  C   UNL d   1       4.632   4.396  12.705  0.00  0.00     0.042 C 
BRANCH  10  11
ATOM     11  C   UNL d   1       4.190   5.616  13.504  0.00  0.00     0.116 C 
ATOM     12 CL   UNL d   1       4.239   7.103  12.530  0.00  0.00    -0.130 Cl
ENDBRANCH  10  11
ENDBRANCH   9  10
ENDBRANCH   8   9
ENDBRANCH   1   8
BRANCH   1  13
ATOM     13  O   UNL d   1       8.390   2.377  11.056  0.00  0.00    -0.292 OA
BRANCH  13  14
ATOM     14  C   UNL d   1       9.366   1.362  10.893  0.00  0.00     0.181 C 
BRANCH  14  15
ATOM     15  C   UNL d   1      10.025   1.531   9.530  0.00  0.00     0.042 C 
BRANCH  15  16
ATOM     16  C   UNL d   1      10.506   2.950   9.257  0.00  0.00     0.116 C 
ATOM     17 CL   UNL d   1       9.488   3.780   8.059  0.00  0.00    -0.130 Cl
ENDBRANCH  15  16
ENDBRANCH  14  15
ENDBRANCH  13  14
ENDBRANCH   1  13
TORSDOF 12
ENDMDL
MODEL 3
REMARK VINA RESULT:      -3.4      1.612      5.373
REMARK  12 active torsions:
REMARK  status: ('A' for Active; 'I' for Inactive)
REMARK    1  A    between atoms: P_4  and  O_5 
REMARK    2  A    between atoms: P_4  and  O_6 
REMARK    3  A    between atoms: P_4  and  O_7 
REMARK    4  A    between atoms: O_5  and  C_9 
REMARK    5  A    between atoms: O_6  and  C_10 
REMARK    6  A    between atoms: O_7  and  C_11 
REMARK    7  A    between atoms: C_9  and  C_12 
REMARK    8  A    between atoms: C_10  and  C_13 
REMARK    9  A    between atoms: C_11  and  C_14 
REMARK   10  A    between atoms: C_12  and  C_15 
REMARK   11  A    between atoms: C_13  and  C_16 
REMARK   12  A    between atoms: C_14  and  C_17 
ROOT
ATOM      1  P   UNL d   1       7.859   2.829  13.147  0.00  0.00     0.477 P 
ATOM      2  O   UNL d   1       8.791   2.116  14.087  0.00  0.00    -0.227 OA
ENDROOT
BRANCH   1   3
ATOM      3  O   UNL d   1       6.422   3.211  13.793  0.00  0.00    -0.292 OA
BRANCH   3   4
ATOM      4  C   UNL d   1       5.225   2.759  13.182  0.00  0.00     0.181 C 
BRANCH   4   5
ATOM      5  C   UNL d   1       4.541   3.945  12.512  0.00  0.00     0.042 C 
BRANCH   5   6
ATOM      6  C   UNL d   1       4.346   5.138  13.437  0.00  0.00     0.116 C 
ATOM      7 CL   UNL d   1       4.714   6.678  12.627  0.00  0.00    -0.130 Cl
ENDBRANCH   5   6
ENDBRANCH   4   5
ENDBRANCH   3   4
ENDBRANCH   1   3
BRANCH   1   8
ATOM      8  O   UNL d   1       7.492   2.001  11.804  0.00  0.00    -0.292 OA
BRANCH   8   9
ATOM      9  C   UNL d   1       8.382   0.987  11.371  0.00  0.00     0.181 C 
BRANCH   9  10
ATOM     10  C   UNL d   1       8.830   1.304   9.949  0.00  0.00     0.042 C 
BRANCH  10  11
ATOM     11  C   UNL d   1      10.273   1.783   9.856  0.00  0.00     0.116 C 
ATOM     12 CL   UNL d   1      10.523   2.877   8.477  0.00  0.00    -0.130 Cl
ENDBRANCH  10  11
ENDBRANCH   9  10
ENDBRANCH   8   9
ENDBRANCH   1   8
BRANCH   1  13
ATOM     13  O   UNL d   1       8.428   4.230  12.566  0.00  0.00    -0.292 OA
BRANCH  13  14
ATOM     14  C   UNL d   1       7.895   4.722  11.349  0.00  0.00     0.181 C 
BRANCH  14  15
ATOM     15  C   UNL d   1       8.999   5.446  10.589  0.00  0.00     0.042 C 
BRANCH  15  16
ATOM     16  C   UNL d   1       8.489   6.564   9.690  0.00  0.00     0.116 C 
ATOM     17 CL   UNL d   1       6.712   6.633   9.655  0.00  0.00    -0.130 Cl
ENDBRANCH  15  16
ENDBRANCH  14  15
ENDBRANCH  13  14
ENDBRANCH   1  13
TORSDOF 12
ENDMDL
MODEL 4
REMARK VINA RESULT:      -3.4      2.734      6.061
REMARK  12 active torsions:
REMARK  status: ('A' for Active; 'I' for Inactive)
REMARK    1  A    between atoms: P_4  and  O_5 
REMARK    2  A    between atoms: P_4  and  O_6 
REMARK    3  A    between atoms: P_4  and  O_7 
REMARK    4  A    between atoms: O_5  and  C_9 
REMARK    5  A    between atoms: O_6  and  C_10 
REMARK    6  A    between atoms: O_7  and  C_11 
REMARK    7  A    between atoms: C_9  and  C_12 
REMARK    8  A    between atoms: C_10  and  C_13 
REMARK    9  A    between atoms: C_11  and  C_14 
REMARK   10  A    between atoms: C_12  and  C_15 
REMARK   11  A    between atoms: C_13  and  C_16 
REMARK   12  A    between atoms: C_14  and  C_17 
ROOT
ATOM      1  P   UNL d   1      10.204   4.432   9.712  0.00  0.00     0.477 P 
ATOM      2  O   UNL d   1      11.632   4.820   9.453  0.00  0.00    -0.227 OA
ENDROOT
BRANCH   1   3
ATOM      3  O   UNL d   1       9.334   5.561  10.483  0.00  0.00    -0.292 OA
BRANCH   3   4
ATOM      4  C   UNL d   1       8.549   6.483   9.743  0.00  0.00     0.181 C 
BRANCH   4   5
ATOM      5  C   UNL d   1       7.079   6.239  10.062  0.00  0.00     0.042 C 
BRANCH   5   6
ATOM      6  C   UNL d   1       6.827   5.846  11.511  0.00  0.00     0.116 C 
ATOM      7 CL   UNL d   1       5.461   4.718  11.669  0.00  0.00    -0.130 Cl
ENDBRANCH   5   6
ENDBRANCH   4   5
ENDBRANCH   3   4
ENDBRANCH   1   3
BRANCH   1   8
ATOM      8  O   UNL d   1      10.020   3.096  10.610  0.00  0.00    -0.292 OA
BRANCH   8   9
ATOM      9  C   UNL d   1       8.705   2.656  10.903  0.00  0.00     0.181 C 
BRANCH   9  10
ATOM     10  C   UNL d   1       8.571   2.484  12.411  0.00  0.00     0.042 C 
BRANCH  10  11
ATOM     11  C   UNL d   1       7.288   1.779  12.834  0.00  0.00     0.116 C 
ATOM     12 CL   UNL d   1       6.633   2.441  14.348  0.00  0.00    -0.130 Cl
ENDBRANCH  10  11
ENDBRANCH   9  10
ENDBRANCH   8   9
ENDBRANCH   1   8
BRANCH   1  13
ATOM     13  O   UNL d   1       9.344   4.096   8.381  0.00  0.00    -0.292 OA
BRANCH  13  14
ATOM     14  C   UNL d   1      10.037   3.900   7.161  0.00  0.00     0.181 C 
BRANCH  14  15
ATOM     15  C   UNL d   1       9.425   4.806   6.100  0.00  0.00     0.042 C 
BRANCH  15  16
ATOM     16  C   UNL d   1      10.373   5.886   5.598  0.00  0.00     0.116 C 
ATOM     17 CL   UNL d   1      10.592   7.187   6.791  0.00  0.00    -0.130 Cl
ENDBRANCH  15  16
ENDBRANCH  14  15
ENDBRANCH  13  14
ENDBRANCH   1  13
TORSDOF 12
ENDMDL
MODEL 5
REMARK VINA RESULT:      -3.4      2.275      3.802
REMARK  12 active torsions:
REMARK  status: ('A' for Active; 'I' for Inactive)
REMARK    1  A    between atoms: P_4  and  O_5 
REMARK    2  A    between atoms: P_4  and  O_6 
REMARK    3  A    between atoms: P_4  and  O_7 
REMARK    4  A    between atoms: O_5  and  C_9 
REMARK    5  A    between atoms: O_6  and  C_10 
REMARK    6  A    between atoms: O_7  and  C_11 
REMARK    7  A    between atoms: C_9  and  C_12 
REMARK    8  A    between atoms: C_10  and  C_13 
REMARK    9  A    between atoms: C_11  and  C_14 
REMARK   10  A    between atoms: C_12  and  C_15 
REMARK   11  A    between atoms: C_13  and  C_16 
REMARK   12  A    between atoms: C_14  and  C_17 
ROOT
ATOM      1  P   UNL d   1       8.025   4.691  11.017  0.00  0.00     0.477 P 
ATOM      2  O   UNL d   1       7.475   3.638  10.097  0.00  0.00    -0.227 OA
ENDROOT
BRANCH   1   3
ATOM      3  O   UNL d   1       9.408   5.367  10.508  0.00  0.00    -0.292 OA
BRANCH   3   4
ATOM      4  C   UNL d   1      10.448   4.554   9.990  0.00  0.00     0.181 C 
BRANCH   4   5
ATOM      5  C   UNL d   1      11.185   5.336   8.909  0.00  0.00     0.042 C 
BRANCH   5   6
ATOM      6  C   UNL d   1      10.289   6.287   8.128  0.00  0.00     0.116 C 
ATOM      7 CL   UNL d   1      10.803   6.446   6.432  0.00  0.00    -0.130 Cl
ENDBRANCH   5   6
ENDBRANCH   4   5
ENDBRANCH   3   4
ENDBRANCH   1   3
BRANCH   1   8
ATOM      8  O   UNL d   1       8.354   4.174  12.516  0.00  0.00    -0.292 OA
BRANCH   8   9
ATOM      9  C   UNL d   1       8.189   2.797  12.807  0.00  0.00     0.181 C 
BRANCH   9  10
ATOM     10  C   UNL d   1       7.175   2.654  13.936  0.00  0.00     0.042 C 
BRANCH  10  11
ATOM     11  C   UNL d   1       5.728   2.774  13.476  0.00  0.00     0.116 C 
ATOM     12 CL   UNL d   1       4.669   3.390  14.766  0.00  0.00    -0.130 Cl
ENDBRANCH  10  11
ENDBRANCH   9  10
ENDBRANCH   8   9
ENDBRANCH   1   8
BRANCH   1  13
ATOM     13  O   UNL d   1       7.033   5.946  11.275  0.00  0.00    -0.292 OA
BRANCH  13  14
ATOM     14  C   UNL d   1       6.024   6.217  10.317  0.00  0.00     0.181 C 
BRANCH  14  15
ATOM     15  C   UNL d   1       4.751   6.624  11.049  0.00  0.00     0.042 C 
BRANCH  15  16
ATOM     16  C   UNL d   1       4.816   6.402  12.554  0.00  0.00     0.116 C 
ATOM     17 CL   UNL d   1       3.241   6.675  13.335  0.00  0.00    -0.130 Cl
ENDBRANCH  15  16
ENDBRANCH  14  15
ENDBRANCH  13  14
ENDBRANCH   1  13
TORSDOF 12
ENDMDL
MODEL 6
REMARK VINA RESULT:      -3.4      1.928      4.613
REMARK  12 active torsions:
REMARK  status: ('A' for Active; 'I' for Inactive)
REMARK    1  A    between atoms: P_4  and  O_5 
REMARK    2  A    between atoms: P_4  and  O_6 
REMARK    3  A    between atoms: P_4  and  O_7 
REMARK    4  A    between atoms: O_5  and  C_9 
REMARK    5  A    between atoms: O_6  and  C_10 
REMARK    6  A    between atoms: O_7  and  C_11 
REMARK    7  A    between atoms: C_9  and  C_12 
REMARK    8  A    between atoms: C_10  and  C_13 
REMARK    9  A    between atoms: C_11  and  C_14 
REMARK   10  A    between atoms: C_12  and  C_15 
REMARK   11  A    between atoms: C_13  and  C_16 
REMARK   12  A    between atoms: C_14  and  C_17 
ROOT
ATOM      1  P   UNL d   1       8.812   3.337  10.814  0.00  0.00     0.477 P 
ATOM      2  O   UNL d   1       7.884   2.671   9.839  0.00  0.00    -0.227 OA
ENDROOT
BRANCH   1   3
ATOM      3  O   UNL d   1       8.360   4.832  11.251  0.00  0.00    -0.292 OA
BRANCH   3   4
ATOM      4  C   UNL d   1       7.279   5.470  10.592  0.00  0.00     0.181 C 
BRANCH   4   5
ATOM      5  C   UNL d   1       6.411   6.162  11.637  0.00  0.00     0.042 C 
BRANCH   5   6
ATOM      6  C   UNL d   1       4.953   6.299  11.223  0.00  0.00     0.116 C 
ATOM      7 CL   UNL d   1       4.023   7.289  12.372  0.00  0.00    -0.130 Cl
ENDBRANCH   5   6
ENDBRANCH   4   5
ENDBRANCH   3   4
ENDBRANCH   1   3
BRANCH   1   8
ATOM      8  O   UNL d   1      10.333   3.512  10.287  0.00  0.00    -0.292 OA
BRANCH   8   9
ATOM      9  C   UNL d   1      10.544   3.786   8.913  0.00  0.00     0.181 C 
BRANCH   9  10
ATOM     10  C   UNL d   1      11.088   5.204   8.775  0.00  0.00     0.042 C 
BRANCH  10  11
ATOM     11  C   UNL d   1      10.084   6.189   8.190  0.00  0.00     0.116 C 
ATOM     12 CL   UNL d   1      10.747   7.064   6.792  0.00  0.00    -0.130 Cl
ENDBRANCH  10  11
ENDBRANCH   9  10
ENDBRANCH   8   9
ENDBRANCH   1   8
BRANCH   1  13
ATOM     13  O   UNL d   1       9.001   2.546  12.215  0.00  0.00    -0.292 OA
BRANCH  13  14
ATOM     14  C   UNL d   1       8.265   2.985  13.344  0.00  0.00     0.181 C 
BRANCH  14  15
ATOM     15  C   UNL d   1       6.979   2.174  13.435  0.00  0.00     0.042 C 
BRANCH  15  16
ATOM     16  C   UNL d   1       5.718   3.008  13.253  0.00  0.00     0.116 C 
ATOM     17 CL   UNL d   1       4.883   3.298  14.796  0.00  0.00    -0.130 Cl
ENDBRANCH  15  16
ENDBRANCH  14  15
ENDBRANCH  13  14
ENDBRANCH   1  13
TORSDOF 12
ENDMDL
MODEL 7
REMARK VINA RESULT:      -3.3      1.406      3.286
REMARK  12 active torsions:
REMARK  status: ('A' for Active; 'I' for Inactive)
REMARK    1  A    between atoms: P_4  and  O_5 
REMARK    2  A    between atoms: P_4  and  O_6 
REMARK    3  A    between atoms: P_4  and  O_7 
REMARK    4  A    between atoms: O_5  and  C_9 
REMARK    5  A    between atoms: O_6  and  C_10 
REMARK    6  A    between atoms: O_7  and  C_11 
REMARK    7  A    between atoms: C_9  and  C_12 
REMARK    8  A    between atoms: C_10  and  C_13 
REMARK    9  A    between atoms: C_11  and  C_14 
REMARK   10  A    between atoms: C_12  and  C_15 
REMARK   11  A    between atoms: C_13  and  C_16 
REMARK   12  A    between atoms: C_14  and  C_17 
ROOT
ATOM      1  P   UNL d   1       7.930   2.308  11.688  0.00  0.00     0.477 P 
ATOM      2  O   UNL d   1       6.984   1.531  10.816  0.00  0.00    -0.227 OA
ENDROOT
BRANCH   1   3
ATOM      3  O   UNL d   1       9.450   2.379  11.128  0.00  0.00    -0.292 OA
BRANCH   3   4
ATOM      4  C   UNL d   1       9.703   2.256   9.738  0.00  0.00     0.181 C 
BRANCH   4   5
ATOM      5  C   UNL d   1      10.711   3.322   9.329  0.00  0.00     0.042 C 
BRANCH   5   6
ATOM      6  C   UNL d   1      10.498   4.660  10.024  0.00  0.00     0.116 C 
ATOM      7 CL   UNL d   1       9.812   5.880   8.926  0.00  0.00    -0.130 Cl
ENDBRANCH   5   6
ENDBRANCH   4   5
ENDBRANCH   3   4
ENDBRANCH   1   3
BRANCH   1   8
ATOM      8  O   UNL d   1       8.080   1.739  13.197  0.00  0.00    -0.292 OA
BRANCH   8   9
ATOM      9  C   UNL d   1       7.418   2.423  14.246  0.00  0.00     0.181 C 
BRANCH   9  10
ATOM     10  C   UNL d   1       5.964   1.966  14.287  0.00  0.00     0.042 C 
BRANCH  10  11
ATOM     11  C   UNL d   1       4.963   3.114  14.291  0.00  0.00     0.116 C 
ATOM     12 CL   UNL d   1       4.111   3.260  12.737  0.00  0.00    -0.130 Cl
ENDBRANCH  10  11
ENDBRANCH   9  10
ENDBRANCH   8   9
ENDBRANCH   1   8
BRANCH   1  13
ATOM     13  O   UNL d   1       7.513   3.856  11.924  0.00  0.00    -0.292 OA
BRANCH  13  14
ATOM     14  C   UNL d   1       6.928   4.569  10.848  0.00  0.00     0.181 C 
BRANCH  14  15
ATOM     15  C   UNL d   1       6.541   5.959  11.336  0.00  0.00     0.042 C 
BRANCH  15  16
ATOM     16  C   UNL d   1       5.083   6.313  11.075  0.00  0.00     0.116 C 
ATOM     17 CL   UNL d   1       4.328   7.102  12.479  0.00  0.00    -0.130 Cl
ENDBRANCH  15  16
ENDBRANCH  14  15
ENDBRANCH  13  14
ENDBRANCH   1  13
TORSDOF 12
ENDMDL
MODEL 8
REMARK VINA RESULT:      -3.3      2.091      2.521
REMARK  12 active torsions:
REMARK  status: ('A' for Active; 'I' for Inactive)
REMARK    1  A    between atoms: P_4  and  O_5 
REMARK    2  A    between atoms: P_4  and  O_6 
REMARK    3  A    between atoms: P_4  and  O_7 
REMARK    4  A    between atoms: O_5  and  C_9 
REMARK    5  A    between atoms: O_6  and  C_10 
REMARK    6  A    between atoms: O_7  and  C_11 
REMARK    7  A    between atoms: C_9  and  C_12 
REMARK    8  A    between atoms: C_10  and  C_13 
REMARK    9  A    between atoms: C_11  and  C_14 
REMARK   10  A    between atoms: C_12  and  C_15 
REMARK   11  A    between atoms: C_13  and  C_16 
REMARK   12  A    between atoms: C_14  and  C_17 
ROOT
ATOM      1  P   UNL d   1       8.119   2.632  12.831  0.00  0.00     0.477 P 
ATOM      2  O   UNL d   1       8.669   2.084  14.117  0.00  0.00    -0.227 OA
ENDROOT
BRANCH   1   3
ATOM      3  O   UNL d   1       8.678   1.898  11.498  0.00  0.00    -0.292 OA
BRANCH   3   4
ATOM      4  C   UNL d   1       8.448   0.513  11.298  0.00  0.00     0.181 C 
BRANCH   4   5
ATOM      5  C   UNL d   1       9.276   0.048  10.106  0.00  0.00     0.042 C 
BRANCH   5   6
ATOM      6  C   UNL d   1      10.354   1.039   9.690  0.00  0.00     0.116 C 
ATOM      7 CL   UNL d   1      11.401   0.387   8.409  0.00  0.00    -0.130 Cl
ENDBRANCH   5   6
ENDBRANCH   4   5
ENDBRANCH   3   4
ENDBRANCH   1   3
BRANCH   1   8
ATOM      8  O   UNL d   1       8.419   4.204  12.584  0.00  0.00    -0.292 OA
BRANCH   8   9
ATOM      9  C   UNL d   1       8.766   4.628  11.277  0.00  0.00     0.181 C 
BRANCH   9  10
ATOM     10  C   UNL d   1       8.024   5.923  10.969  0.00  0.00     0.042 C 
BRANCH  10  11
ATOM     11  C   UNL d   1       7.443   5.974   9.562  0.00  0.00     0.116 C 
ATOM     12 CL   UNL d   1       7.818   7.506   8.741  0.00  0.00    -0.130 Cl
ENDBRANCH  10  11
ENDBRANCH   9  10
ENDBRANCH   8   9
ENDBRANCH   1   8
BRANCH   1  13
ATOM     13  O   UNL d   1       6.507   2.544  12.695  0.00  0.00    -0.292 OA
BRANCH  13  14
ATOM     14  C   UNL d   1       5.720   3.530  13.340  0.00  0.00     0.181 C 
BRANCH  14  15
ATOM     15  C   UNL d   1       4.963   4.321  12.281  0.00  0.00     0.042 C 
BRANCH  15  16
ATOM     16  C   UNL d   1       4.629   5.745  12.705  0.00  0.00     0.116 C 
ATOM     17 CL   UNL d   1       4.367   6.812  11.307  0.00  0.00    -0.130 Cl
ENDBRANCH  15  16
ENDBRANCH  14  15
ENDBRANCH  13  14
ENDBRANCH   1  13
TORSDOF 12
ENDMDL
MODEL 9
REMARK VINA RESULT:      -3.3      3.552      4.907
REMARK  12 active torsions:
REMARK  status: ('A' for Active; 'I' for Inactive)
REMARK    1  A    between atoms: P_4  and  O_5 
REMARK    2  A    between atoms: P_4  and  O_6 
REMARK    3  A    between atoms: P_4  and  O_7 
REMARK    4  A    between atoms: O_5  and  C_9 
REMARK    5  A    between atoms: O_6  and  C_10 
REMARK    6  A    between atoms: O_7  and  C_11 
REMARK    7  A    between atoms: C_9  and  C_12 
REMARK    8  A    between atoms: C_10  and  C_13 
REMARK    9  A    between atoms: C_11  and  C_14 
REMARK   10  A    between atoms: C_12  and  C_15 
REMARK   11  A    between atoms: C_13  and  C_16 
REMARK   12  A    between atoms: C_14  and  C_17 
ROOT
ATOM      1  P   UNL d   1       6.782   5.789   9.757  0.00  0.00     0.477 P 
ATOM      2  O   UNL d   1       6.543   4.306   9.719  0.00  0.00    -0.227 OA
ENDROOT
BRANCH   1   3
ATOM      3  O   UNL d   1       6.787   6.502   8.301  0.00  0.00    -0.292 OA
BRANCH   3   4
ATOM      4  C   UNL d   1       8.016   6.802   7.660  0.00  0.00     0.181 C 
BRANCH   4   5
ATOM      5  C   UNL d   1       8.489   5.566   6.906  0.00  0.00     0.042 C 
BRANCH   5   6
ATOM      6  C   UNL d   1       9.949   5.633   6.479  0.00  0.00     0.116 C 
ATOM      7 CL   UNL d   1      10.642   7.253   6.725  0.00  0.00    -0.130 Cl
ENDBRANCH   5   6
ENDBRANCH   4   5
ENDBRANCH   3   4
ENDBRANCH   1   3
BRANCH   1   8
ATOM      8  O   UNL d   1       8.189   6.229  10.428  0.00  0.00    -0.292 OA
BRANCH   8   9
ATOM      9  C   UNL d   1       8.966   5.239  11.079  0.00  0.00     0.181 C 
BRANCH   9  10
ATOM     10  C   UNL d   1      10.152   4.886  10.190  0.00  0.00     0.042 C 
BRANCH  10  11
ATOM     11  C   UNL d   1      10.203   3.415   9.794  0.00  0.00     0.116 C 
ATOM     12 CL   UNL d   1       9.412   2.374  11.000  0.00  0.00    -0.130 Cl
ENDBRANCH  10  11
ENDBRANCH   9  10
ENDBRANCH   8   9
ENDBRANCH   1   8
BRANCH   1  13
ATOM     13  O   UNL d   1       5.692   6.626  10.614  0.00  0.00    -0.292 OA
BRANCH  13  14
ATOM     14  C   UNL d   1       5.361   6.170  11.914  0.00  0.00     0.181 C 
BRANCH  14  15
ATOM     15  C   UNL d   1       4.254   7.053  12.475  0.00  0.00     0.042 C 
BRANCH  15  16
ATOM     16  C   UNL d   1       2.909   6.854  11.789  0.00  0.00     0.116 C 
ATOM     17 CL   UNL d   1       2.609   8.086  10.542  0.00  0.00    -0.130 Cl
ENDBRANCH  15  16
ENDBRANCH  14  15
ENDBRANCH  13  14
ENDBRANCH   1  13
TORSDOF 12
ENDMDL
