MODEL 1
REMARK VINA RESULT:      -6.8      0.000      0.000
REMARK  1 active torsions:
REMARK  status: ('A' for Active; 'I' for Inactive)
REMARK    1  A    between atoms: O_1  and  C_13 
ROOT
ATOM      1  O   UNL d   1       1.501   6.576  11.851  0.00  0.00    -0.298 OA
ATOM      2  C   UNL d   1       7.230   5.893   9.066  0.00  0.00    -0.005 C 
ATOM      3  C   UNL d   1       6.870   6.077  10.574  0.00  0.00    -0.002 C 
ATOM      4  C   UNL d   1       8.743   6.068   8.900  0.00  0.00     0.001 C 
ATOM      5  C   UNL d   1       9.556   5.051   9.723  0.00  0.00    -0.014 C 
ATOM      6  C   UNL d   1       5.322   5.969  10.839  0.00  0.00    -0.036 C 
ATOM      7  C   UNL d   1       4.583   6.973   9.897  0.00  0.00     0.001 C 
ATOM      8  C   UNL d   1       7.739   5.174  11.493  0.00  0.00     0.007 C 
ATOM      9  C   UNL d   1       9.248   5.286  11.208  0.00  0.00     0.012 C 
ATOM     10  C   UNL d   1       6.456   6.892   8.196  0.00  0.00     0.006 C 
ATOM     11  C   UNL d   1       9.357   5.968   7.505  0.00  0.00     0.008 C 
ATOM     12  C   UNL d   1      10.977   5.455   9.289  0.00  0.00     0.126 C 
ATOM     13  C   UNL d   1       4.952   6.795   8.418  0.00  0.00     0.006 C 
ATOM     14  C   UNL d   1      10.849   5.703   7.773  0.00  0.00     0.033 C 
ATOM     15  C   UNL d   1       5.011   6.357  12.321  0.00  0.00     0.017 C 
ATOM     16  C   UNL d   1       9.286   3.567   9.366  0.00  0.00     0.018 C 
ATOM     17  C   UNL d   1       4.825   4.518  10.607  0.00  0.00     0.016 C 
ATOM     18  C   UNL d   1       3.057   6.922  10.066  0.00  0.00     0.083 C 
ATOM     19  C   UNL d   1       3.718   7.142  12.545  0.00  0.00     0.079 C 
ATOM     20  C   UNL d   1       2.660   6.827  11.521  0.00  0.00     0.127 C 
ENDROOT
BRANCH  12  21
ATOM     21  O   UNL d   1      11.947   4.466   9.579  0.00  0.00    -0.395 OA
ATOM     22  H   UNL d   1      12.546   4.803  10.264  0.00  0.00     0.210 HD
ENDBRANCH  12  21
TORSDOF 1
ENDMDL
MODEL 2
REMARK VINA RESULT:      -6.6      2.688      4.007
REMARK  1 active torsions:
REMARK  status: ('A' for Active; 'I' for Inactive)
REMARK    1  A    between atoms: O_1  and  C_13 
ROOT
ATOM      1  O   UNL d   1       6.312   1.672  14.395  0.00  0.00    -0.298 OA
ATOM      2  C   UNL d   1       7.937   5.268   9.349  0.00  0.00    -0.005 C 
ATOM      3  C   UNL d   1       8.809   4.290  10.197  0.00  0.00    -0.002 C 
ATOM      4  C   UNL d   1       8.864   6.092   8.449  0.00  0.00     0.001 C 
ATOM      5  C   UNL d   1       9.694   5.220   7.488  0.00  0.00    -0.014 C 
ATOM      6  C   UNL d   1       7.947   3.433  11.199  0.00  0.00    -0.036 C 
ATOM      7  C   UNL d   1       7.079   4.401  12.064  0.00  0.00     0.001 C 
ATOM      8  C   UNL d   1       9.774   3.454   9.311  0.00  0.00     0.007 C 
ATOM      9  C   UNL d   1      10.597   4.309   8.331  0.00  0.00     0.012 C 
ATOM     10  C   UNL d   1       7.095   6.174  10.256  0.00  0.00     0.006 C 
ATOM     11  C   UNL d   1       8.262   7.156   7.533  0.00  0.00     0.008 C 
ATOM     12  C   UNL d   1      10.436   6.329   6.719  0.00  0.00     0.126 C 
ATOM     13  C   UNL d   1       6.235   5.369  11.224  0.00  0.00     0.006 C 
ATOM     14  C   UNL d   1       9.357   7.404   6.481  0.00  0.00     0.033 C 
ATOM     15  C   UNL d   1       8.888   2.626  12.150  0.00  0.00     0.017 C 
ATOM     16  C   UNL d   1       8.855   4.356   6.511  0.00  0.00     0.018 C 
ATOM     17  C   UNL d   1       7.056   2.422  10.431  0.00  0.00     0.016 C 
ATOM     18  C   UNL d   1       6.180   3.653  13.060  0.00  0.00     0.083 C 
ATOM     19  C   UNL d   1       8.413   2.488  13.596  0.00  0.00     0.079 C 
ATOM     20  C   UNL d   1       6.912   2.509  13.721  0.00  0.00     0.127 C 
ENDROOT
BRANCH  12  21
ATOM     21  O   UNL d   1      11.002   5.876   5.504  0.00  0.00    -0.395 OA
ATOM     22  H   UNL d   1      11.215   6.644   4.949  0.00  0.00     0.210 HD
ENDBRANCH  12  21
TORSDOF 1
ENDMDL
MODEL 3
REMARK VINA RESULT:      -6.5      2.829      6.228
REMARK  1 active torsions:
REMARK  status: ('A' for Active; 'I' for Inactive)
REMARK    1  A    between atoms: O_1  and  C_13 
ROOT
ATOM      1  O   UNL d   1      11.424   6.774   6.736  0.00  0.00    -0.298 OA
ATOM      2  C   UNL d   1       7.489   4.520  11.261  0.00  0.00    -0.005 C 
ATOM      3  C   UNL d   1       8.176   3.772  10.075  0.00  0.00    -0.002 C 
ATOM      4  C   UNL d   1       6.428   3.598  11.871  0.00  0.00     0.001 C 
ATOM      5  C   UNL d   1       7.018   2.277  12.402  0.00  0.00    -0.014 C 
ATOM      6  C   UNL d   1       9.250   4.663   9.346  0.00  0.00    -0.036 C 
ATOM      7  C   UNL d   1       8.580   6.010   8.927  0.00  0.00     0.001 C 
ATOM      8  C   UNL d   1       8.692   2.367  10.495  0.00  0.00     0.007 C 
ATOM      9  C   UNL d   1       7.630   1.518  11.217  0.00  0.00     0.012 C 
ATOM     10  C   UNL d   1       6.871   5.841  10.788  0.00  0.00     0.006 C 
ATOM     11  C   UNL d   1       5.581   4.103  13.037  0.00  0.00     0.008 C 
ATOM     12  C   UNL d   1       5.738   1.645  12.979  0.00  0.00     0.126 C 
ATOM     13  C   UNL d   1       7.895   6.733  10.095  0.00  0.00     0.006 C 
ATOM     14  C   UNL d   1       5.021   2.819  13.674  0.00  0.00     0.033 C 
ATOM     15  C   UNL d   1       9.754   3.936   8.057  0.00  0.00     0.017 C 
ATOM     16  C   UNL d   1       8.084   2.447  13.515  0.00  0.00     0.018 C 
ATOM     17  C   UNL d   1      10.473   4.913  10.267  0.00  0.00     0.016 C 
ATOM     18  C   UNL d   1       9.561   6.962   8.226  0.00  0.00     0.083 C 
ATOM     19  C   UNL d   1      10.029   4.835   6.852  0.00  0.00     0.079 C 
ATOM     20  C   UNL d   1      10.445   6.227   7.246  0.00  0.00     0.127 C 
ENDROOT
BRANCH  12  21
ATOM     21  O   UNL d   1       6.002   0.585  13.879  0.00  0.00    -0.395 OA
ATOM     22  H   UNL d   1       5.820  -0.259  13.434  0.00  0.00     0.210 HD
ENDBRANCH  12  21
TORSDOF 1
ENDMDL
MODEL 4
REMARK VINA RESULT:      -6.3      2.032      2.680
REMARK  1 active torsions:
REMARK  status: ('A' for Active; 'I' for Inactive)
REMARK    1  A    between atoms: O_1  and  C_13 
ROOT
ATOM      1  O   UNL d   1       2.158   3.731  14.441  0.00  0.00    -0.298 OA
ATOM      2  C   UNL d   1       7.256   5.017  10.781  0.00  0.00    -0.005 C 
ATOM      3  C   UNL d   1       7.114   4.029  11.981  0.00  0.00    -0.002 C 
ATOM      4  C   UNL d   1       8.743   5.163  10.442  0.00  0.00     0.001 C 
ATOM      5  C   UNL d   1       9.401   3.826  10.053  0.00  0.00    -0.014 C 
ATOM      6  C   UNL d   1       5.619   3.854  12.442  0.00  0.00    -0.036 C 
ATOM      7  C   UNL d   1       5.016   5.267  12.726  0.00  0.00     0.001 C 
ATOM      8  C   UNL d   1       7.862   2.691  11.723  0.00  0.00     0.007 C 
ATOM      9  C   UNL d   1       9.318   2.885  11.262  0.00  0.00     0.012 C 
ATOM     10  C   UNL d   1       6.627   6.375  11.117  0.00  0.00     0.006 C 
ATOM     11  C   UNL d   1       9.162   6.107   9.316  0.00  0.00     0.008 C 
ATOM     12  C   UNL d   1      10.819   4.330   9.726  0.00  0.00     0.126 C 
ATOM     13  C   UNL d   1       5.171   6.237  11.547  0.00  0.00     0.006 C 
ATOM     14  C   UNL d   1      10.580   5.638   8.947  0.00  0.00     0.033 C 
ATOM     15  C   UNL d   1       5.566   3.017  13.760  0.00  0.00     0.017 C 
ATOM     16  C   UNL d   1       8.777   3.134   8.814  0.00  0.00     0.018 C 
ATOM     17  C   UNL d   1       4.795   3.105  11.362  0.00  0.00     0.016 C 
ATOM     18  C   UNL d   1       3.544   5.202  13.160  0.00  0.00     0.083 C 
ATOM     19  C   UNL d   1       4.508   3.445  14.778  0.00  0.00     0.079 C 
ATOM     20  C   UNL d   1       3.300   4.072  14.133  0.00  0.00     0.127 C 
ENDROOT
BRANCH  12  21
ATOM     21  O   UNL d   1      11.576   3.401   8.972  0.00  0.00    -0.395 OA
ATOM     22  H   UNL d   1      10.995   2.976   8.321  0.00  0.00     0.210 HD
ENDBRANCH  12  21
TORSDOF 1
ENDMDL
MODEL 5
REMARK VINA RESULT:      -6.0      9.542     11.850
REMARK  1 active torsions:
REMARK  status: ('A' for Active; 'I' for Inactive)
REMARK    1  A    between atoms: O_1  and  C_13 
ROOT
ATOM      1  O   UNL d   1      10.281  -3.629  11.324  0.00  0.00    -0.298 OA
ATOM      2  C   UNL d   1      14.353  -1.896   6.693  0.00  0.00    -0.005 C 
ATOM      3  C   UNL d   1      14.501  -2.998   7.789  0.00  0.00    -0.002 C 
ATOM      4  C   UNL d   1      15.715  -1.689   6.023  0.00  0.00     0.001 C 
ATOM      5  C   UNL d   1      16.255  -2.969   5.357  0.00  0.00    -0.014 C 
ATOM      6  C   UNL d   1      13.160  -3.246   8.575  0.00  0.00    -0.036 C 
ATOM      7  C   UNL d   1      12.648  -1.879   9.133  0.00  0.00     0.001 C 
ATOM      8  C   UNL d   1      15.159  -4.290   7.229  0.00  0.00     0.007 C 
ATOM      9  C   UNL d   1      16.462  -4.024   6.453  0.00  0.00     0.012 C 
ATOM     10  C   UNL d   1      13.828  -0.589   7.301  0.00  0.00     0.006 C 
ATOM     11  C   UNL d   1      15.854  -0.633   4.927  0.00  0.00     0.008 C 
ATOM     12  C   UNL d   1      17.555  -2.408   4.751  0.00  0.00     0.126 C 
ATOM     13  C   UNL d   1      12.519  -0.797   8.053  0.00  0.00     0.006 C 
ATOM     14  C   UNL d   1      17.140  -1.035   4.184  0.00  0.00     0.033 C 
ATOM     15  C   UNL d   1      13.422  -4.207   9.779  0.00  0.00     0.017 C 
ATOM     16  C   UNL d   1      15.348  -3.550   4.243  0.00  0.00     0.018 C 
ATOM     17  C   UNL d   1      12.097  -3.904   7.656  0.00  0.00     0.016 C 
ATOM     18  C   UNL d   1      11.324  -2.015   9.899  0.00  0.00     0.083 C 
ATOM     19  C   UNL d   1      12.642  -3.900  11.058  0.00  0.00     0.079 C 
ATOM     20  C   UNL d   1      11.317  -3.238  10.787  0.00  0.00     0.127 C 
ENDROOT
BRANCH  12  21
ATOM     21  O   UNL d   1      18.104  -3.244   3.750  0.00  0.00    -0.395 OA
ATOM     22  H   UNL d   1      18.872  -3.711   4.117  0.00  0.00     0.210 HD
ENDBRANCH  12  21
TORSDOF 1
ENDMDL
MODEL 6
REMARK VINA RESULT:      -5.9      3.343      4.334
REMARK  1 active torsions:
REMARK  status: ('A' for Active; 'I' for Inactive)
REMARK    1  A    between atoms: O_1  and  C_13 
ROOT
ATOM      1  O   UNL d   1       6.819   1.552  13.620  0.00  0.00    -0.298 OA
ATOM      2  C   UNL d   1       8.506   4.195   8.034  0.00  0.00    -0.005 C 
ATOM      3  C   UNL d   1       7.977   4.872   9.337  0.00  0.00    -0.002 C 
ATOM      4  C   UNL d   1       8.484   5.229   6.904  0.00  0.00     0.001 C 
ATOM      5  C   UNL d   1       9.359   6.461   7.203  0.00  0.00    -0.014 C 
ATOM      6  C   UNL d   1       7.911   3.870  10.550  0.00  0.00    -0.036 C 
ATOM      7  C   UNL d   1       7.080   2.619  10.118  0.00  0.00     0.001 C 
ATOM      8  C   UNL d   1       8.726   6.199   9.648  0.00  0.00     0.007 C 
ATOM      9  C   UNL d   1       8.790   7.159   8.446  0.00  0.00     0.012 C 
ATOM     10  C   UNL d   1       7.662   2.965   7.678  0.00  0.00     0.006 C 
ATOM     11  C   UNL d   1       8.926   4.811   5.502  0.00  0.00     0.008 C 
ATOM     12  C   UNL d   1       9.164   7.234   5.885  0.00  0.00     0.126 C 
ATOM     13  C   UNL d   1       7.597   1.967   8.829  0.00  0.00     0.006 C 
ATOM     14  C   UNL d   1       9.238   6.144   4.798  0.00  0.00     0.033 C 
ATOM     15  C   UNL d   1       7.193   4.550  11.760  0.00  0.00     0.017 C 
ATOM     16  C   UNL d   1      10.861   6.148   7.426  0.00  0.00     0.018 C 
ATOM     17  C   UNL d   1       9.337   3.461  11.004  0.00  0.00     0.016 C 
ATOM     18  C   UNL d   1       6.980   1.567  11.233  0.00  0.00     0.083 C 
ATOM     19  C   UNL d   1       6.284   3.642  12.589  0.00  0.00     0.079 C 
ATOM     20  C   UNL d   1       6.731   2.204  12.580  0.00  0.00     0.127 C 
ENDROOT
BRANCH  12  21
ATOM     21  O   UNL d   1      10.138   8.241   5.685  0.00  0.00    -0.395 OA
ATOM     22  H   UNL d   1       9.697   9.049   5.376  0.00  0.00     0.210 HD
ENDBRANCH  12  21
TORSDOF 1
ENDMDL
MODEL 7
REMARK VINA RESULT:      -5.8     12.235     14.724
REMARK  1 active torsions:
REMARK  status: ('A' for Active; 'I' for Inactive)
REMARK    1  A    between atoms: O_1  and  C_13 
ROOT
ATOM      1  O   UNL d   1      19.765   0.638   3.858  0.00  0.00    -0.298 OA
ATOM      2  C   UNL d   1      14.684  -3.033   5.174  0.00  0.00    -0.005 C 
ATOM      3  C   UNL d   1      15.474  -2.868   3.838  0.00  0.00    -0.002 C 
ATOM      4  C   UNL d   1      13.390  -3.801   4.883  0.00  0.00     0.001 C 
ATOM      5  C   UNL d   1      13.644  -5.200   4.291  0.00  0.00    -0.014 C 
ATOM      6  C   UNL d   1      16.800  -2.040   4.024  0.00  0.00    -0.036 C 
ATOM      7  C   UNL d   1      16.448  -0.682   4.711  0.00  0.00     0.001 C 
ATOM      8  C   UNL d   1      15.668  -4.225   3.105  0.00  0.00     0.007 C 
ATOM      9  C   UNL d   1      14.361  -5.023   2.945  0.00  0.00     0.012 C 
ATOM     10  C   UNL d   1      14.389  -1.667   5.806  0.00  0.00     0.006 C 
ATOM     11  C   UNL d   1      12.411  -4.071   6.024  0.00  0.00     0.008 C 
ATOM     12  C   UNL d   1      12.190  -5.697   4.185  0.00  0.00     0.126 C 
ATOM     13  C   UNL d   1      15.660  -0.852   6.016  0.00  0.00     0.006 C 
ATOM     14  C   UNL d   1      11.538  -5.226   5.501  0.00  0.00     0.033 C 
ATOM     15  C   UNL d   1      17.438  -1.742   2.629  0.00  0.00     0.017 C 
ATOM     16  C   UNL d   1      14.472  -6.145   5.198  0.00  0.00     0.018 C 
ATOM     17  C   UNL d   1      17.832  -2.837   4.865  0.00  0.00     0.016 C 
ATOM     18  C   UNL d   1      17.689   0.190   4.958  0.00  0.00     0.083 C 
ATOM     19  C   UNL d   1      18.092  -0.368   2.477  0.00  0.00     0.079 C 
ATOM     20  C   UNL d   1      18.630   0.168   3.777  0.00  0.00     0.127 C 
ENDROOT
BRANCH  12  21
ATOM     21  O   UNL d   1      12.096  -7.100   4.026  0.00  0.00    -0.395 OA
ATOM     22  H   UNL d   1      11.171  -7.334   3.842  0.00  0.00     0.210 HD
ENDBRANCH  12  21
TORSDOF 1
ENDMDL
MODEL 8
REMARK VINA RESULT:      -5.7      2.058      3.069
REMARK  1 active torsions:
REMARK  status: ('A' for Active; 'I' for Inactive)
REMARK    1  A    between atoms: O_1  and  C_13 
ROOT
ATOM      1  O   UNL d   1       0.172   8.284   7.398  0.00  0.00    -0.298 OA
ATOM      2  C   UNL d   1       5.980   6.140   9.045  0.00  0.00    -0.005 C 
ATOM      3  C   UNL d   1       4.857   6.761   9.935  0.00  0.00    -0.002 C 
ATOM      4  C   UNL d   1       7.269   6.063   9.870  0.00  0.00     0.001 C 
ATOM      5  C   UNL d   1       7.118   5.200  11.137  0.00  0.00    -0.014 C 
ATOM      6  C   UNL d   1       3.500   6.932   9.156  0.00  0.00    -0.036 C 
ATOM      7  C   UNL d   1       3.774   7.741   7.848  0.00  0.00     0.001 C 
ATOM      8  C   UNL d   1       4.721   6.024  11.297  0.00  0.00     0.007 C 
ATOM      9  C   UNL d   1       6.061   5.857  12.036  0.00  0.00     0.012 C 
ATOM     10  C   UNL d   1       6.184   6.968   7.770  0.00  0.00     0.006 C 
ATOM     11  C   UNL d   1       8.539   5.520   9.218  0.00  0.00     0.008 C 
ATOM     12  C   UNL d   1       8.560   5.285  11.671  0.00  0.00     0.126 C 
ATOM     13  C   UNL d   1       4.888   7.133   6.985  0.00  0.00     0.006 C 
ATOM     14  C   UNL d   1       9.435   5.139  10.411  0.00  0.00     0.033 C 
ATOM     15  C   UNL d   1       2.484   7.734  10.032  0.00  0.00     0.017 C 
ATOM     16  C   UNL d   1       6.728   3.724  10.871  0.00  0.00     0.018 C 
ATOM     17  C   UNL d   1       2.872   5.550   8.835  0.00  0.00     0.016 C 
ATOM     18  C   UNL d   1       2.506   7.939   7.003  0.00  0.00     0.083 C 
ATOM     19  C   UNL d   1       1.585   8.714   9.279  0.00  0.00     0.079 C 
ATOM     20  C   UNL d   1       1.313   8.284   7.862  0.00  0.00     0.127 C 
ENDROOT
BRANCH  12  21
ATOM     21  O   UNL d   1       8.853   4.287  12.631  0.00  0.00    -0.395 OA
ATOM     22  H   UNL d   1       9.358   3.576  12.203  0.00  0.00     0.210 HD
ENDBRANCH  12  21
TORSDOF 1
ENDMDL
MODEL 9
REMARK VINA RESULT:      -5.6      3.755      7.510
REMARK  1 active torsions:
REMARK  status: ('A' for Active; 'I' for Inactive)
REMARK    1  A    between atoms: O_1  and  C_13 
ROOT
ATOM      1  O   UNL d   1      11.759  -2.574   8.308  0.00  0.00    -0.298 OA
ATOM      2  C   UNL d   1       9.348   3.325   8.959  0.00  0.00    -0.005 C 
ATOM      3  C   UNL d   1      10.413   2.790   7.951  0.00  0.00    -0.002 C 
ATOM      4  C   UNL d   1       9.338   4.856   8.890  0.00  0.00     0.001 C 
ATOM      5  C   UNL d   1       8.993   5.389   7.487  0.00  0.00    -0.014 C 
ATOM      6  C   UNL d   1      10.539   1.221   7.988  0.00  0.00    -0.036 C 
ATOM      7  C   UNL d   1      10.799   0.775   9.462  0.00  0.00     0.001 C 
ATOM      8  C   UNL d   1      10.215   3.380   6.527  0.00  0.00     0.007 C 
ATOM      9  C   UNL d   1      10.083   4.914   6.516  0.00  0.00     0.012 C 
ATOM     10  C   UNL d   1       9.649   2.835  10.381  0.00  0.00     0.006 C 
ATOM     11  C   UNL d   1       8.399   5.637   9.808  0.00  0.00     0.008 C 
ATOM     12  C   UNL d   1       9.007   6.900   7.781  0.00  0.00     0.126 C 
ATOM     13  C   UNL d   1       9.756   1.316  10.449  0.00  0.00     0.006 C 
ATOM     14  C   UNL d   1       8.298   7.022   9.144  0.00  0.00     0.033 C 
ATOM     15  C   UNL d   1      11.749   0.766   7.110  0.00  0.00     0.017 C 
ATOM     16  C   UNL d   1       7.602   4.957   6.955  0.00  0.00     0.018 C 
ATOM     17  C   UNL d   1       9.257   0.554   7.423  0.00  0.00     0.016 C 
ATOM     18  C   UNL d   1      10.911  -0.751   9.604  0.00  0.00     0.083 C 
ATOM     19  C   UNL d   1      12.554  -0.417   7.650  0.00  0.00     0.079 C 
ATOM     20  C   UNL d   1      11.723  -1.356   8.483  0.00  0.00     0.127 C 
ENDROOT
BRANCH  12  21
ATOM     21  O   UNL d   1       8.358   7.665   6.782  0.00  0.00    -0.395 OA
ATOM     22  H   UNL d   1       8.408   7.187   5.938  0.00  0.00     0.210 HD
ENDBRANCH  12  21
TORSDOF 1
ENDMDL
