MODEL 1
REMARK VINA RESULT:      -5.0      0.000      0.000
REMARK  2 active torsions:
REMARK  status: ('A' for Active; 'I' for Inactive)
REMARK    1  A    between atoms: O_11  and  C_12 
REMARK    2  A    between atoms: O_11  and  C_13 
ROOT
ATOM      1  O   UNL d   1      16.488  -5.127   7.096  0.00  0.00    -0.305 OA
ENDROOT
BRANCH   1   2
ATOM      2  C   UNL d   1      15.689  -4.000   7.122  0.00  0.00     0.113 A 
ATOM      3  C   UNL d   1      15.728  -3.112   6.057  0.00  0.00     0.065 A 
ATOM      4 BR   UNL d   1      16.902  -3.508   4.597  0.00  0.00    -0.046 Br
ATOM      5  C   UNL d   1      14.923  -1.972   6.085  0.00  0.00     0.050 A 
ATOM      6 BR   UNL d   1      14.982  -0.741   4.608  0.00  0.00    -0.048 Br
ATOM      7  C   UNL d   1      14.089  -1.733   7.177  0.00  0.00     0.048 A 
ATOM      8 BR   UNL d   1      12.982  -0.159   7.216  0.00  0.00    -0.048 Br
ATOM      9  C   UNL d   1      14.060  -2.634   8.241  0.00  0.00     0.050 A 
ATOM     10 BR   UNL d   1      12.916  -2.323   9.756  0.00  0.00    -0.048 Br
ATOM     11  C   UNL d   1      14.864  -3.773   8.214  0.00  0.00     0.065 A 
ATOM     12 BR   UNL d   1      14.879  -5.056   9.635  0.00  0.00    -0.046 Br
ENDBRANCH   1   2
BRANCH   1  13
ATOM     13  C   UNL d   1      15.895  -6.326   7.374  0.00  0.00     0.113 A 
ATOM     14  C   UNL d   1      14.740  -6.709   6.692  0.00  0.00     0.065 A 
ATOM     15 BR   UNL d   1      14.048  -5.497   5.380  0.00  0.00    -0.046 Br
ATOM     16  C   UNL d   1      14.133  -7.932   6.977  0.00  0.00     0.050 A 
ATOM     17 BR   UNL d   1      12.540  -8.437   6.027  0.00  0.00    -0.048 Br
ATOM     18  C   UNL d   1      14.681  -8.773   7.946  0.00  0.00     0.048 A 
ATOM     19 BR   UNL d   1      13.841 -10.459   8.342  0.00  0.00    -0.048 Br
ATOM     20  C   UNL d   1      15.835  -8.391   8.628  0.00  0.00     0.050 A 
ATOM     21 BR   UNL d   1      16.607  -9.535   9.967  0.00  0.00    -0.048 Br
ATOM     22  C   UNL d   1      16.442  -7.168   8.343  0.00  0.00     0.065 A 
ATOM     23 BR   UNL d   1      18.028  -6.573   9.235  0.00  0.00    -0.046 Br
ENDBRANCH   1  13
TORSDOF 2
ENDMDL
MODEL 2
REMARK VINA RESULT:      -5.0      0.021      6.070
REMARK  2 active torsions:
REMARK  status: ('A' for Active; 'I' for Inactive)
REMARK    1  A    between atoms: O_11  and  C_12 
REMARK    2  A    between atoms: O_11  and  C_13 
ROOT
ATOM      1  O   UNL d   1      16.490  -5.125   7.088  0.00  0.00    -0.305 OA
ENDROOT
BRANCH   1   2
ATOM      2  C   UNL d   1      15.887  -6.338   7.365  0.00  0.00     0.113 A 
ATOM      3  C   UNL d   1      14.741  -6.704   6.676  0.00  0.00     0.065 A 
ATOM      4 BR   UNL d   1      14.053  -5.488   5.365  0.00  0.00    -0.046 Br
ATOM      5  C   UNL d   1      14.131  -7.927   6.958  0.00  0.00     0.050 A 
ATOM      6 BR   UNL d   1      12.540  -8.429   6.003  0.00  0.00    -0.048 Br
ATOM      7  C   UNL d   1      14.676  -8.770   7.926  0.00  0.00     0.048 A 
ATOM      8 BR   UNL d   1      13.833 -10.456   8.317  0.00  0.00    -0.048 Br
ATOM      9  C   UNL d   1      15.829  -8.391   8.612  0.00  0.00     0.050 A 
ATOM     10 BR   UNL d   1      16.596  -9.540   9.950  0.00  0.00    -0.048 Br
ATOM     11  C   UNL d   1      16.439  -7.168   8.331  0.00  0.00     0.065 A 
ATOM     12 BR   UNL d   1      18.023  -6.578   9.228  0.00  0.00    -0.046 Br
ENDBRANCH   1   2
BRANCH   1  13
ATOM     13  C   UNL d   1      15.702  -4.010   7.108  0.00  0.00     0.113 A 
ATOM     14  C   UNL d   1      15.730  -3.115   6.039  0.00  0.00     0.065 A 
ATOM     15 BR   UNL d   1      16.901  -3.521   4.579  0.00  0.00    -0.046 Br
ATOM     16  C   UNL d   1      14.927  -1.975   6.062  0.00  0.00     0.050 A 
ATOM     17 BR   UNL d   1      14.984  -0.753   4.579  0.00  0.00    -0.048 Br
ATOM     18  C   UNL d   1      14.095  -1.730   7.154  0.00  0.00     0.048 A 
ATOM     19 BR   UNL d   1      12.989  -0.154   7.187  0.00  0.00    -0.048 Br
ATOM     20  C   UNL d   1      14.067  -2.624   8.223  0.00  0.00     0.050 A 
ATOM     21 BR   UNL d   1      12.927  -2.304   9.739  0.00  0.00    -0.048 Br
ATOM     22  C   UNL d   1      14.870  -3.764   8.201  0.00  0.00     0.065 A 
ATOM     23 BR   UNL d   1      14.886  -5.039   9.629  0.00  0.00    -0.046 Br
ENDBRANCH   1  13
TORSDOF 2
ENDMDL
MODEL 3
REMARK VINA RESULT:      -4.9      0.010      2.584
REMARK  2 active torsions:
REMARK  status: ('A' for Active; 'I' for Inactive)
REMARK    1  A    between atoms: O_11  and  C_12 
REMARK    2  A    between atoms: O_11  and  C_13 
ROOT
ATOM      1  O   UNL d   1      16.482  -5.125   7.103  0.00  0.00    -0.305 OA
ENDROOT
BRANCH   1   2
ATOM      2  C   UNL d   1      15.683  -3.997   7.127  0.00  0.00     0.113 A 
ATOM      3  C   UNL d   1      15.720  -3.112   6.060  0.00  0.00     0.065 A 
ATOM      4 BR   UNL d   1      16.892  -3.511   4.599  0.00  0.00    -0.046 Br
ATOM      5  C   UNL d   1      14.915  -1.972   6.086  0.00  0.00     0.050 A 
ATOM      6 BR   UNL d   1      14.971  -0.745   4.607  0.00  0.00    -0.048 Br
ATOM      7  C   UNL d   1      14.083  -1.731   7.179  0.00  0.00     0.048 A 
ATOM      8 BR   UNL d   1      12.975  -0.157   7.216  0.00  0.00    -0.048 Br
ATOM      9  C   UNL d   1      14.055  -2.629   8.245  0.00  0.00     0.050 A 
ATOM     10 BR   UNL d   1      12.914  -2.315   9.762  0.00  0.00    -0.048 Br
ATOM     11  C   UNL d   1      14.860  -3.768   8.220  0.00  0.00     0.065 A 
ATOM     12 BR   UNL d   1      14.877  -5.048   9.644  0.00  0.00    -0.046 Br
ENDBRANCH   1   2
BRANCH   1  13
ATOM     13  C   UNL d   1      15.889  -6.323   7.381  0.00  0.00     0.113 A 
ATOM     14  C   UNL d   1      16.440  -7.168   8.345  0.00  0.00     0.065 A 
ATOM     15 BR   UNL d   1      18.030  -6.574   9.233  0.00  0.00    -0.046 Br
ATOM     16  C   UNL d   1      15.836  -8.393   8.627  0.00  0.00     0.050 A 
ATOM     17 BR   UNL d   1      16.615  -9.543   9.957  0.00  0.00    -0.048 Br
ATOM     18  C   UNL d   1      14.681  -8.774   7.945  0.00  0.00     0.048 A 
ATOM     19 BR   UNL d   1      13.849 -10.467   8.333  0.00  0.00    -0.048 Br
ATOM     20  C   UNL d   1      14.129  -7.930   6.982  0.00  0.00     0.050 A 
ATOM     21 BR   UNL d   1      12.536  -8.437   6.031  0.00  0.00    -0.048 Br
ATOM     22  C   UNL d   1      14.733  -6.706   6.699  0.00  0.00     0.065 A 
ATOM     23 BR   UNL d   1      14.037  -5.492   5.392  0.00  0.00    -0.046 Br
ENDBRANCH   1  13
TORSDOF 2
ENDMDL
MODEL 4
REMARK VINA RESULT:      -4.9      0.020      2.584
REMARK  2 active torsions:
REMARK  status: ('A' for Active; 'I' for Inactive)
REMARK    1  A    between atoms: O_11  and  C_12 
REMARK    2  A    between atoms: O_11  and  C_13 
ROOT
ATOM      1  O   UNL d   1      16.482  -5.127   7.088  0.00  0.00    -0.305 OA
ENDROOT
BRANCH   1   2
ATOM      2  C   UNL d   1      15.689  -3.996   7.114  0.00  0.00     0.113 A 
ATOM      3  C   UNL d   1      14.864  -3.765   8.206  0.00  0.00     0.065 A 
ATOM      4 BR   UNL d   1      14.875  -5.048   9.628  0.00  0.00    -0.046 Br
ATOM      5  C   UNL d   1      14.062  -2.624   8.231  0.00  0.00     0.050 A 
ATOM      6 BR   UNL d   1      12.918  -2.310   9.744  0.00  0.00    -0.048 Br
ATOM      7  C   UNL d   1      14.093  -1.726   7.164  0.00  0.00     0.048 A 
ATOM      8 BR   UNL d   1      12.984  -0.153   7.197  0.00  0.00    -0.048 Br
ATOM      9  C   UNL d   1      14.927  -1.969   6.073  0.00  0.00     0.050 A 
ATOM     10 BR   UNL d   1      14.985  -0.743   4.592  0.00  0.00    -0.048 Br
ATOM     11  C   UNL d   1      15.729  -3.110   6.047  0.00  0.00     0.065 A 
ATOM     12 BR   UNL d   1      16.899  -3.513   4.587  0.00  0.00    -0.046 Br
ENDBRANCH   1   2
BRANCH   1  13
ATOM     13  C   UNL d   1      15.883  -6.324   7.365  0.00  0.00     0.113 A 
ATOM     14  C   UNL d   1      14.728  -6.701   6.680  0.00  0.00     0.065 A 
ATOM     15 BR   UNL d   1      14.044  -5.485   5.368  0.00  0.00    -0.046 Br
ATOM     16  C   UNL d   1      14.115  -7.921   6.965  0.00  0.00     0.050 A 
ATOM     17 BR   UNL d   1      12.521  -8.419   6.011  0.00  0.00    -0.048 Br
ATOM     18  C   UNL d   1      14.657  -8.764   7.934  0.00  0.00     0.048 A 
ATOM     19 BR   UNL d   1      13.809 -10.447   8.328  0.00  0.00    -0.048 Br
ATOM     20  C   UNL d   1      15.812  -8.388   8.618  0.00  0.00     0.050 A 
ATOM     21 BR   UNL d   1      16.576  -9.537   9.958  0.00  0.00    -0.048 Br
ATOM     22  C   UNL d   1      16.425  -7.168   8.335  0.00  0.00     0.065 A 
ATOM     23 BR   UNL d   1      18.013  -6.580   9.230  0.00  0.00    -0.046 Br
ENDBRANCH   1  13
TORSDOF 2
ENDMDL
MODEL 5
REMARK VINA RESULT:      -4.9      0.011      6.293
REMARK  2 active torsions:
REMARK  status: ('A' for Active; 'I' for Inactive)
REMARK    1  A    between atoms: O_11  and  C_12 
REMARK    2  A    between atoms: O_11  and  C_13 
ROOT
ATOM      1  O   UNL d   1      16.480  -5.125   7.094  0.00  0.00    -0.305 OA
ENDROOT
BRANCH   1   2
ATOM      2  C   UNL d   1      15.879  -6.337   7.379  0.00  0.00     0.113 A 
ATOM      3  C   UNL d   1      16.436  -7.165   8.343  0.00  0.00     0.065 A 
ATOM      4 BR   UNL d   1      18.025  -6.570   9.231  0.00  0.00    -0.046 Br
ATOM      5  C   UNL d   1      15.830  -8.389   8.628  0.00  0.00     0.050 A 
ATOM      6 BR   UNL d   1      16.606  -9.536   9.962  0.00  0.00    -0.048 Br
ATOM      7  C   UNL d   1      14.675  -8.771   7.947  0.00  0.00     0.048 A 
ATOM      8 BR   UNL d   1      13.841 -10.461   8.339  0.00  0.00    -0.048 Br
ATOM      9  C   UNL d   1      14.125  -7.929   6.981  0.00  0.00     0.050 A 
ATOM     10 BR   UNL d   1      12.532  -8.437   6.030  0.00  0.00    -0.048 Br
ATOM     11  C   UNL d   1      14.730  -6.705   6.694  0.00  0.00     0.065 A 
ATOM     12 BR   UNL d   1      14.037  -5.496   5.383  0.00  0.00    -0.046 Br
ENDBRANCH   1   2
BRANCH   1  13
ATOM     13  C   UNL d   1      15.692  -4.009   7.117  0.00  0.00     0.113 A 
ATOM     14  C   UNL d   1      15.721  -3.112   6.049  0.00  0.00     0.065 A 
ATOM     15 BR   UNL d   1      16.892  -3.517   4.589  0.00  0.00    -0.046 Br
ATOM     16  C   UNL d   1      14.919  -1.972   6.074  0.00  0.00     0.050 A 
ATOM     17 BR   UNL d   1      14.976  -0.747   4.593  0.00  0.00    -0.048 Br
ATOM     18  C   UNL d   1      14.087  -1.728   7.167  0.00  0.00     0.048 A 
ATOM     19 BR   UNL d   1      12.982  -0.152   7.202  0.00  0.00    -0.048 Br
ATOM     20  C   UNL d   1      14.058  -2.624   8.235  0.00  0.00     0.050 A 
ATOM     21 BR   UNL d   1      12.919  -2.307   9.751  0.00  0.00    -0.048 Br
ATOM     22  C   UNL d   1      14.861  -3.764   8.211  0.00  0.00     0.065 A 
ATOM     23 BR   UNL d   1      14.877  -5.043   9.636  0.00  0.00    -0.046 Br
ENDBRANCH   1  13
TORSDOF 2
ENDMDL
MODEL 6
REMARK VINA RESULT:      -4.9      0.011      6.506
REMARK  2 active torsions:
REMARK  status: ('A' for Active; 'I' for Inactive)
REMARK    1  A    between atoms: O_11  and  C_12 
REMARK    2  A    between atoms: O_11  and  C_13 
ROOT
ATOM      1  O   UNL d   1      16.483  -5.126   7.089  0.00  0.00    -0.305 OA
ENDROOT
BRANCH   1   2
ATOM      2  C   UNL d   1      15.880  -6.336   7.374  0.00  0.00     0.113 A 
ATOM      3  C   UNL d   1      16.434  -7.164   8.339  0.00  0.00     0.065 A 
ATOM      4 BR   UNL d   1      18.024  -6.572   9.227  0.00  0.00    -0.046 Br
ATOM      5  C   UNL d   1      15.826  -8.387   8.626  0.00  0.00     0.050 A 
ATOM      6 BR   UNL d   1      16.599  -9.533   9.961  0.00  0.00    -0.048 Br
ATOM      7  C   UNL d   1      14.670  -8.767   7.944  0.00  0.00     0.048 A 
ATOM      8 BR   UNL d   1      13.833 -10.456   8.337  0.00  0.00    -0.048 Br
ATOM      9  C   UNL d   1      14.123  -7.926   6.976  0.00  0.00     0.050 A 
ATOM     10 BR   UNL d   1      12.530  -8.432   6.025  0.00  0.00    -0.048 Br
ATOM     11  C   UNL d   1      14.731  -6.703   6.689  0.00  0.00     0.065 A 
ATOM     12 BR   UNL d   1      14.040  -5.494   5.376  0.00  0.00    -0.046 Br
ENDBRANCH   1   2
BRANCH   1  13
ATOM     13  C   UNL d   1      15.698  -4.008   7.116  0.00  0.00     0.113 A 
ATOM     14  C   UNL d   1      14.865  -3.766   8.208  0.00  0.00     0.065 A 
ATOM     15 BR   UNL d   1      14.879  -5.049   9.630  0.00  0.00    -0.046 Br
ATOM     16  C   UNL d   1      14.062  -2.626   8.233  0.00  0.00     0.050 A 
ATOM     17 BR   UNL d   1      12.919  -2.314   9.748  0.00  0.00    -0.048 Br
ATOM     18  C   UNL d   1      14.091  -1.728   7.167  0.00  0.00     0.048 A 
ATOM     19 BR   UNL d   1      12.980  -0.156   7.202  0.00  0.00    -0.048 Br
ATOM     20  C   UNL d   1      14.924  -1.969   6.075  0.00  0.00     0.050 A 
ATOM     21 BR   UNL d   1      14.980  -0.743   4.595  0.00  0.00    -0.048 Br
ATOM     22  C   UNL d   1      15.727  -3.109   6.049  0.00  0.00     0.065 A 
ATOM     23 BR   UNL d   1      16.897  -3.511   4.587  0.00  0.00    -0.046 Br
ENDBRANCH   1  13
TORSDOF 2
ENDMDL
MODEL 7
REMARK VINA RESULT:      -4.9      0.006      3.655
REMARK  2 active torsions:
REMARK  status: ('A' for Active; 'I' for Inactive)
REMARK    1  A    between atoms: O_11  and  C_12 
REMARK    2  A    between atoms: O_11  and  C_13 
ROOT
ATOM      1  O   UNL d   1      16.485  -5.126   7.099  0.00  0.00    -0.305 OA
ENDROOT
BRANCH   1   2
ATOM      2  C   UNL d   1      15.689  -3.996   7.126  0.00  0.00     0.113 A 
ATOM      3  C   UNL d   1      14.864  -3.769   8.218  0.00  0.00     0.065 A 
ATOM      4 BR   UNL d   1      14.878  -5.053   9.639  0.00  0.00    -0.046 Br
ATOM      5  C   UNL d   1      14.058  -2.630   8.243  0.00  0.00     0.050 A 
ATOM      6 BR   UNL d   1      12.912  -2.321   9.756  0.00  0.00    -0.048 Br
ATOM      7  C   UNL d   1      14.087  -1.731   7.178  0.00  0.00     0.048 A 
ATOM      8 BR   UNL d   1      12.974  -0.161   7.212  0.00  0.00    -0.048 Br
ATOM      9  C   UNL d   1      14.922  -1.971   6.087  0.00  0.00     0.050 A 
ATOM     10 BR   UNL d   1      14.977  -0.743   4.607  0.00  0.00    -0.048 Br
ATOM     11  C   UNL d   1      15.727  -3.110   6.060  0.00  0.00     0.065 A 
ATOM     12 BR   UNL d   1      16.898  -3.508   4.599  0.00  0.00    -0.046 Br
ENDBRANCH   1   2
BRANCH   1  13
ATOM     13  C   UNL d   1      15.891  -6.323   7.379  0.00  0.00     0.113 A 
ATOM     14  C   UNL d   1      16.441  -7.167   8.344  0.00  0.00     0.065 A 
ATOM     15 BR   UNL d   1      18.031  -6.574   9.232  0.00  0.00    -0.046 Br
ATOM     16  C   UNL d   1      15.835  -8.391   8.628  0.00  0.00     0.050 A 
ATOM     17 BR   UNL d   1      16.612  -9.540   9.959  0.00  0.00    -0.048 Br
ATOM     18  C   UNL d   1      14.679  -8.771   7.946  0.00  0.00     0.048 A 
ATOM     19 BR   UNL d   1      13.845 -10.462   8.336  0.00  0.00    -0.048 Br
ATOM     20  C   UNL d   1      14.129  -7.928   6.982  0.00  0.00     0.050 A 
ATOM     21 BR   UNL d   1      12.536  -8.434   6.031  0.00  0.00    -0.048 Br
ATOM     22  C   UNL d   1      14.735  -6.705   6.697  0.00  0.00     0.065 A 
ATOM     23 BR   UNL d   1      14.041  -5.492   5.388  0.00  0.00    -0.046 Br
ENDBRANCH   1  13
TORSDOF 2
ENDMDL
MODEL 8
REMARK VINA RESULT:      -4.9      0.024      6.289
REMARK  2 active torsions:
REMARK  status: ('A' for Active; 'I' for Inactive)
REMARK    1  A    between atoms: O_11  and  C_12 
REMARK    2  A    between atoms: O_11  and  C_13 
ROOT
ATOM      1  O   UNL d   1      16.487  -5.128   7.092  0.00  0.00    -0.305 OA
ENDROOT
BRANCH   1   2
ATOM      2  C   UNL d   1      15.879  -6.338   7.370  0.00  0.00     0.113 A 
ATOM      3  C   UNL d   1      14.733  -6.701   6.679  0.00  0.00     0.065 A 
ATOM      4 BR   UNL d   1      14.052  -5.485   5.365  0.00  0.00    -0.046 Br
ATOM      5  C   UNL d   1      14.118  -7.921   6.962  0.00  0.00     0.050 A 
ATOM      6 BR   UNL d   1      12.527  -8.419   6.005  0.00  0.00    -0.048 Br
ATOM      7  C   UNL d   1      14.658  -8.765   7.933  0.00  0.00     0.048 A 
ATOM      8 BR   UNL d   1      13.808 -10.447   8.325  0.00  0.00    -0.048 Br
ATOM      9  C   UNL d   1      15.811  -8.388   8.621  0.00  0.00     0.050 A 
ATOM     10 BR   UNL d   1      16.571  -9.537   9.962  0.00  0.00    -0.048 Br
ATOM     11  C   UNL d   1      16.426  -7.168   8.338  0.00  0.00     0.065 A 
ATOM     12 BR   UNL d   1      18.010  -6.581   9.238  0.00  0.00    -0.046 Br
ENDBRANCH   1   2
BRANCH   1  13
ATOM     13  C   UNL d   1      15.703  -4.009   7.114  0.00  0.00     0.113 A 
ATOM     14  C   UNL d   1      14.869  -3.762   8.205  0.00  0.00     0.065 A 
ATOM     15 BR   UNL d   1      14.881  -5.040   9.631  0.00  0.00    -0.046 Br
ATOM     16  C   UNL d   1      14.067  -2.621   8.226  0.00  0.00     0.050 A 
ATOM     17 BR   UNL d   1      12.923  -2.302   9.738  0.00  0.00    -0.048 Br
ATOM     18  C   UNL d   1      14.099  -1.727   7.156  0.00  0.00     0.048 A 
ATOM     19 BR   UNL d   1      12.989  -0.154   7.184  0.00  0.00    -0.048 Br
ATOM     20  C   UNL d   1      14.932  -1.974   6.066  0.00  0.00     0.050 A 
ATOM     21 BR   UNL d   1      14.990  -0.753   4.581  0.00  0.00    -0.048 Br
ATOM     22  C   UNL d   1      15.733  -3.114   6.044  0.00  0.00     0.065 A 
ATOM     23 BR   UNL d   1      16.904  -3.522   4.584  0.00  0.00    -0.046 Br
ENDBRANCH   1  13
TORSDOF 2
ENDMDL
MODEL 9
REMARK VINA RESULT:      -4.8     11.693     13.461
REMARK  2 active torsions:
REMARK  status: ('A' for Active; 'I' for Inactive)
REMARK    1  A    between atoms: O_11  and  C_12 
REMARK    2  A    between atoms: O_11  and  C_13 
ROOT
ATOM      1  O   UNL d   1       8.479   4.404   9.775  0.00  0.00    -0.305 OA
ENDROOT
BRANCH   1   2
ATOM      2  C   UNL d   1       7.457   4.469  10.703  0.00  0.00     0.113 A 
ATOM      3  C   UNL d   1       6.475   5.440  10.569  0.00  0.00     0.065 A 
ATOM      4 BR   UNL d   1       6.598   6.646   9.087  0.00  0.00    -0.046 Br
ATOM      5  C   UNL d   1       5.444   5.507  11.507  0.00  0.00     0.050 A 
ATOM      6 BR   UNL d   1       4.086   6.855  11.319  0.00  0.00    -0.048 Br
ATOM      7  C   UNL d   1       5.407   4.603  12.568  0.00  0.00     0.048 A 
ATOM      8 BR   UNL d   1       3.986   4.698  13.864  0.00  0.00    -0.048 Br
ATOM      9  C   UNL d   1       6.400   3.632  12.692  0.00  0.00     0.050 A 
ATOM     10 BR   UNL d   1       6.368   2.376  14.148  0.00  0.00    -0.048 Br
ATOM     11  C   UNL d   1       7.432   3.565  11.754  0.00  0.00     0.065 A 
ATOM     12 BR   UNL d   1       8.830   2.262  11.855  0.00  0.00    -0.046 Br
ENDBRANCH   1   2
BRANCH   1  13
ATOM     13  C   UNL d   1       8.130   4.327   8.457  0.00  0.00     0.113 A 
ATOM     14  C   UNL d   1       7.241   3.342   8.026  0.00  0.00     0.065 A 
ATOM     15 BR   UNL d   1       6.553   2.137   9.346  0.00  0.00    -0.046 Br
ATOM     16  C   UNL d   1       6.887   3.262   6.679  0.00  0.00     0.050 A 
ATOM     17 BR   UNL d   1       5.662   1.895   6.107  0.00  0.00    -0.048 Br
ATOM     18  C   UNL d   1       7.423   4.167   5.763  0.00  0.00     0.048 A 
ATOM     19 BR   UNL d   1       6.936   4.054   3.903  0.00  0.00    -0.048 Br
ATOM     20  C   UNL d   1       8.312   5.151   6.193  0.00  0.00     0.050 A 
ATOM     21 BR   UNL d   1       9.061   6.408   4.945  0.00  0.00    -0.048 Br
ATOM     22  C   UNL d   1       8.666   5.231   7.539  0.00  0.00     0.065 A 
ATOM     23 BR   UNL d   1       9.879   6.554   8.207  0.00  0.00    -0.046 Br
ENDBRANCH   1  13
TORSDOF 2
ENDMDL
