MODEL 1
REMARK VINA RESULT:      -6.8      0.000      0.000
REMARK  2 active torsions:
REMARK  status: ('A' for Active; 'I' for Inactive)
REMARK    1  A    between atoms: O_1  and  C_7 
REMARK    2  A    between atoms: O_2  and  C_20 
ROOT
ATOM      1  C   UNL d   1       9.857   5.689   7.964  0.00  0.00    -0.014 C 
ATOM      2  C   UNL d   1       8.684   6.480   8.576  0.00  0.00     0.001 C 
ATOM      3  C   UNL d   1       7.844   5.625   9.525  0.00  0.00    -0.001 C 
ATOM      4  C   UNL d   1       8.748   5.151  10.702  0.00  0.00     0.023 C 
ATOM      5  C   UNL d   1      10.437   6.778   7.042  0.00  0.00     0.126 C 
ATOM      6  C   UNL d   1      10.782   5.248   9.105  0.00  0.00     0.013 C 
ATOM      7  C   UNL d   1       8.019   7.126   7.363  0.00  0.00     0.008 C 
ATOM      8  C   UNL d   1      10.026   4.441  10.178  0.00  0.00     0.010 C 
ATOM      9  C   UNL d   1       9.194   7.441   6.419  0.00  0.00     0.033 C 
ATOM     10  C   UNL d   1       6.644   6.385  10.094  0.00  0.00     0.010 C 
ATOM     11  C   UNL d   1       9.441   4.447   7.135  0.00  0.00     0.018 C 
ATOM     12  C   UNL d   1       7.945   4.359  11.732  0.00  0.00    -0.047 A 
ATOM     13  C   UNL d   1       5.773   5.438  10.914  0.00  0.00     0.039 C 
ATOM     14  C   UNL d   1       6.550   4.540  11.845  0.00  0.00    -0.049 A 
ATOM     15  C   UNL d   1       8.582   3.504  12.648  0.00  0.00     0.011 A 
ATOM     16  C   UNL d   1       5.828   3.830  12.822  0.00  0.00     0.044 A 
ATOM     17  C   UNL d   1       7.855   2.812  13.619  0.00  0.00     0.037 A 
ATOM     18  C   UNL d   1       6.478   2.970  13.704  0.00  0.00     0.066 A 
ENDROOT
BRANCH   5  19
ATOM     19  O   UNL d   1      11.307   6.261   6.054  0.00  0.00    -0.395 OA
ATOM     20  H   UNL d   1      11.202   5.294   6.049  0.00  0.00     0.210 HD
ENDBRANCH   5  19
BRANCH  18  21
ATOM     21  O   UNL d   1       5.768   2.295  14.646  0.00  0.00    -0.361 OA
ATOM     22  H   UNL d   1       5.190   1.648  14.203  0.00  0.00     0.217 HD
ENDBRANCH  18  21
TORSDOF 2
ENDMDL
MODEL 2
REMARK VINA RESULT:      -6.5      1.508      6.755
REMARK  2 active torsions:
REMARK  status: ('A' for Active; 'I' for Inactive)
REMARK    1  A    between atoms: O_1  and  C_7 
REMARK    2  A    between atoms: O_2  and  C_20 
ROOT
ATOM      1  C   UNL d   1       4.724   4.617  12.491  0.00  0.00    -0.014 C 
ATOM      2  C   UNL d   1       6.139   4.138  12.870  0.00  0.00     0.001 C 
ATOM      3  C   UNL d   1       7.117   4.245  11.700  0.00  0.00    -0.001 C 
ATOM      4  C   UNL d   1       7.230   5.743  11.281  0.00  0.00     0.023 C 
ATOM      5  C   UNL d   1       3.998   4.324  13.819  0.00  0.00     0.126 C 
ATOM      6  C   UNL d   1       4.808   6.102  12.116  0.00  0.00     0.013 C 
ATOM      7  C   UNL d   1       5.892   2.777  13.516  0.00  0.00     0.008 C 
ATOM      8  C   UNL d   1       5.832   6.353  10.993  0.00  0.00     0.010 C 
ATOM      9  C   UNL d   1       4.550   2.951  14.250  0.00  0.00     0.033 C 
ATOM     10  C   UNL d   1       8.510   3.719  12.049  0.00  0.00     0.010 C 
ATOM     11  C   UNL d   1       4.061   3.833  11.330  0.00  0.00     0.018 C 
ATOM     12  C   UNL d   1       8.259   5.929  10.169  0.00  0.00    -0.047 A 
ATOM     13  C   UNL d   1       9.392   3.722  10.803  0.00  0.00     0.039 C 
ATOM     14  C   UNL d   1       9.295   4.988   9.986  0.00  0.00    -0.049 A 
ATOM     15  C   UNL d   1       8.256   7.079   9.361  0.00  0.00     0.011 A 
ATOM     16  C   UNL d   1      10.257   5.191   8.979  0.00  0.00     0.044 A 
ATOM     17  C   UNL d   1       9.221   7.274   8.371  0.00  0.00     0.037 A 
ATOM     18  C   UNL d   1      10.219   6.327   8.176  0.00  0.00     0.066 A 
ENDROOT
BRANCH   5  19
ATOM     19  O   UNL d   1       2.590   4.306  13.688  0.00  0.00    -0.395 OA
ATOM     20  H   UNL d   1       2.252   3.603  14.269  0.00  0.00     0.210 HD
ENDBRANCH   5  19
BRANCH  18  21
ATOM     21  O   UNL d   1      11.159   6.512   7.211  0.00  0.00    -0.361 OA
ATOM     22  H   UNL d   1      11.872   7.071   7.567  0.00  0.00     0.217 HD
ENDBRANCH  18  21
TORSDOF 2
ENDMDL
MODEL 3
REMARK VINA RESULT:      -6.4      2.987      5.714
REMARK  2 active torsions:
REMARK  status: ('A' for Active; 'I' for Inactive)
REMARK    1  A    between atoms: O_1  and  C_7 
REMARK    2  A    between atoms: O_2  and  C_20 
ROOT
ATOM      1  C   UNL d   1       4.146   6.746   8.675  0.00  0.00    -0.014 C 
ATOM      2  C   UNL d   1       4.766   6.757  10.086  0.00  0.00     0.001 C 
ATOM      3  C   UNL d   1       6.104   6.019  10.135  0.00  0.00    -0.001 C 
ATOM      4  C   UNL d   1       7.105   6.739   9.182  0.00  0.00     0.023 C 
ATOM      5  C   UNL d   1       2.827   7.484   8.977  0.00  0.00     0.126 C 
ATOM      6  C   UNL d   1       5.099   7.488   7.730  0.00  0.00     0.013 C 
ATOM      7  C   UNL d   1       3.621   6.290  10.981  0.00  0.00     0.008 C 
ATOM      8  C   UNL d   1       6.516   6.883   7.753  0.00  0.00     0.010 C 
ATOM      9  C   UNL d   1       2.364   6.886  10.320  0.00  0.00     0.033 C 
ATOM     10  C   UNL d   1       6.700   5.975  11.543  0.00  0.00     0.010 C 
ATOM     11  C   UNL d   1       3.855   5.335   8.104  0.00  0.00     0.018 C 
ATOM     12  C   UNL d   1       8.490   6.098   9.249  0.00  0.00    -0.047 A 
ATOM     13  C   UNL d   1       7.955   5.106  11.547  0.00  0.00     0.039 C 
ATOM     14  C   UNL d   1       8.887   5.368  10.390  0.00  0.00    -0.049 A 
ATOM     15  C   UNL d   1       9.431   6.293   8.223  0.00  0.00     0.011 A 
ATOM     16  C   UNL d   1      10.178   4.813  10.452  0.00  0.00     0.044 A 
ATOM     17  C   UNL d   1      10.713   5.744   8.301  0.00  0.00     0.037 A 
ATOM     18  C   UNL d   1      11.085   5.000   9.413  0.00  0.00     0.066 A 
ENDROOT
BRANCH   5  19
ATOM     19  O   UNL d   1       1.855   7.315   7.965  0.00  0.00    -0.395 OA
ATOM     20  H   UNL d   1       0.990   7.226   8.402  0.00  0.00     0.210 HD
ENDBRANCH   5  19
BRANCH  18  21
ATOM     21  O   UNL d   1      12.332   4.462   9.491  0.00  0.00    -0.361 OA
ATOM     22  H   UNL d   1      12.357   3.829  10.229  0.00  0.00     0.217 HD
ENDBRANCH  18  21
TORSDOF 2
ENDMDL
MODEL 4
REMARK VINA RESULT:      -6.3      2.754      4.035
REMARK  2 active torsions:
REMARK  status: ('A' for Active; 'I' for Inactive)
REMARK    1  A    between atoms: O_1  and  C_7 
REMARK    2  A    between atoms: O_2  and  C_20 
ROOT
ATOM      1  C   UNL d   1       9.021   4.791   9.782  0.00  0.00    -0.014 C 
ATOM      2  C   UNL d   1       8.409   5.840   8.833  0.00  0.00     0.001 C 
ATOM      3  C   UNL d   1       6.894   5.955   9.001  0.00  0.00    -0.001 C 
ATOM      4  C   UNL d   1       6.587   6.412  10.459  0.00  0.00     0.023 C 
ATOM      5  C   UNL d   1      10.491   4.872   9.327  0.00  0.00     0.126 C 
ATOM      6  C   UNL d   1       8.766   5.244  11.225  0.00  0.00     0.013 C 
ATOM      7  C   UNL d   1       8.984   5.466   7.470  0.00  0.00     0.008 C 
ATOM      8  C   UNL d   1       7.267   5.476  11.496  0.00  0.00     0.010 C 
ATOM      9  C   UNL d   1      10.402   4.958   7.791  0.00  0.00     0.033 C 
ATOM     10  C   UNL d   1       6.269   6.954   8.025  0.00  0.00     0.010 C 
ATOM     11  C   UNL d   1       8.479   3.351   9.595  0.00  0.00     0.018 C 
ATOM     12  C   UNL d   1       5.089   6.627  10.668  0.00  0.00    -0.047 A 
ATOM     13  C   UNL d   1       4.748   6.914   8.147  0.00  0.00     0.039 C 
ATOM     14  C   UNL d   1       4.246   6.904   9.570  0.00  0.00    -0.049 A 
ATOM     15  C   UNL d   1       4.530   6.645  11.957  0.00  0.00     0.011 A 
ATOM     16  C   UNL d   1       2.875   7.136   9.781  0.00  0.00     0.044 A 
ATOM     17  C   UNL d   1       3.169   6.884  12.154  0.00  0.00     0.037 A 
ATOM     18  C   UNL d   1       2.339   7.125  11.066  0.00  0.00     0.066 A 
ENDROOT
BRANCH   5  19
ATOM     19  O   UNL d   1      11.263   3.764   9.746  0.00  0.00    -0.395 OA
ATOM     20  H   UNL d   1      10.645   3.074  10.045  0.00  0.00     0.210 HD
ENDBRANCH   5  19
BRANCH  18  21
ATOM     21  O   UNL d   1       1.013   7.355  11.254  0.00  0.00    -0.361 OA
ATOM     22  H   UNL d   1       0.814   8.276  11.009  0.00  0.00     0.217 HD
ENDBRANCH  18  21
TORSDOF 2
ENDMDL
MODEL 5
REMARK VINA RESULT:      -6.3      1.262      6.373
REMARK  2 active torsions:
REMARK  status: ('A' for Active; 'I' for Inactive)
REMARK    1  A    between atoms: O_1  and  C_7 
REMARK    2  A    between atoms: O_2  and  C_20 
ROOT
ATOM      1  C   UNL d   1       6.993   2.642  12.472  0.00  0.00    -0.014 C 
ATOM      2  C   UNL d   1       6.265   3.838  11.827  0.00  0.00     0.001 C 
ATOM      3  C   UNL d   1       7.226   4.764  11.082  0.00  0.00    -0.001 C 
ATOM      4  C   UNL d   1       7.906   3.958   9.933  0.00  0.00     0.023 C 
ATOM      5  C   UNL d   1       5.795   1.971  13.173  0.00  0.00     0.126 C 
ATOM      6  C   UNL d   1       7.634   1.812  11.353  0.00  0.00     0.013 C 
ATOM      7  C   UNL d   1       5.420   4.398  12.968  0.00  0.00     0.008 C 
ATOM      8  C   UNL d   1       8.569   2.663  10.473  0.00  0.00     0.010 C 
ATOM      9  C   UNL d   1       5.003   3.151  13.769  0.00  0.00     0.033 C 
ATOM     10  C   UNL d   1       6.522   5.984  10.486  0.00  0.00     0.010 C 
ATOM     11  C   UNL d   1       8.078   3.025  13.510  0.00  0.00     0.018 C 
ATOM     12  C   UNL d   1       8.818   4.852   9.096  0.00  0.00    -0.047 A 
ATOM     13  C   UNL d   1       7.554   6.934   9.884  0.00  0.00     0.039 C 
ATOM     14  C   UNL d   1       8.610   6.247   9.052  0.00  0.00    -0.049 A 
ATOM     15  C   UNL d   1       9.824   4.304   8.282  0.00  0.00     0.011 A 
ATOM     16  C   UNL d   1       9.436   7.054   8.249  0.00  0.00     0.044 A 
ATOM     17  C   UNL d   1      10.632   5.114   7.482  0.00  0.00     0.037 A 
ATOM     18  C   UNL d   1      10.442   6.490   7.469  0.00  0.00     0.066 A 
ENDROOT
BRANCH   5  19
ATOM     19  O   UNL d   1       6.184   1.044  14.167  0.00  0.00    -0.395 OA
ATOM     20  H   UNL d   1       6.553   1.551  14.911  0.00  0.00     0.210 HD
ENDBRANCH   5  19
BRANCH  18  21
ATOM     21  O   UNL d   1      11.229   7.283   6.693  0.00  0.00    -0.361 OA
ATOM     22  H   UNL d   1      12.156   7.004   6.795  0.00  0.00     0.217 HD
ENDBRANCH  18  21
TORSDOF 2
ENDMDL
MODEL 6
REMARK VINA RESULT:      -6.2      2.306      6.190
REMARK  2 active torsions:
REMARK  status: ('A' for Active; 'I' for Inactive)
REMARK    1  A    between atoms: O_1  and  C_7 
REMARK    2  A    between atoms: O_2  and  C_20 
ROOT
ATOM      1  C   UNL d   1       4.002   6.015  11.788  0.00  0.00    -0.014 C 
ATOM      2  C   UNL d   1       4.235   6.290  10.290  0.00  0.00     0.001 C 
ATOM      3  C   UNL d   1       5.710   6.528   9.969  0.00  0.00    -0.001 C 
ATOM      4  C   UNL d   1       6.514   5.243  10.336  0.00  0.00     0.023 C 
ATOM      5  C   UNL d   1       2.466   5.891  11.783  0.00  0.00     0.126 C 
ATOM      6  C   UNL d   1       4.752   4.729  12.160  0.00  0.00     0.013 C 
ATOM      7  C   UNL d   1       3.214   7.377   9.964  0.00  0.00     0.008 C 
ATOM      8  C   UNL d   1       6.248   4.816  11.805  0.00  0.00     0.010 C 
ATOM      9  C   UNL d   1       2.003   7.028  10.851  0.00  0.00     0.033 C 
ATOM     10  C   UNL d   1       5.945   6.857   8.494  0.00  0.00     0.010 C 
ATOM     11  C   UNL d   1       4.447   7.158  12.736  0.00  0.00     0.018 C 
ATOM     12  C   UNL d   1       7.987   5.387   9.960  0.00  0.00    -0.047 A 
ATOM     13  C   UNL d   1       7.410   7.222   8.272  0.00  0.00     0.039 C 
ATOM     14  C   UNL d   1       8.385   6.294   8.955  0.00  0.00    -0.049 A 
ATOM     15  C   UNL d   1       8.967   4.561  10.536  0.00  0.00     0.011 A 
ATOM     16  C   UNL d   1       9.741   6.390   8.595  0.00  0.00     0.044 A 
ATOM     17  C   UNL d   1      10.309   4.659  10.164  0.00  0.00     0.037 A 
ATOM     18  C   UNL d   1      10.698   5.577   9.196  0.00  0.00     0.066 A 
ENDROOT
BRANCH   5  19
ATOM     19  O   UNL d   1       1.897   6.006  13.072  0.00  0.00    -0.395 OA
ATOM     20  H   UNL d   1       1.928   5.125  13.485  0.00  0.00     0.210 HD
ENDBRANCH   5  19
BRANCH  18  21
ATOM     21  O   UNL d   1      12.004   5.678   8.833  0.00  0.00    -0.361 OA
ATOM     22  H   UNL d   1      12.090   5.438   7.894  0.00  0.00     0.217 HD
ENDBRANCH  18  21
TORSDOF 2
ENDMDL
MODEL 7
REMARK VINA RESULT:      -6.2      1.303      1.818
REMARK  2 active torsions:
REMARK  status: ('A' for Active; 'I' for Inactive)
REMARK    1  A    between atoms: O_1  and  C_7 
REMARK    2  A    between atoms: O_2  and  C_20 
ROOT
ATOM      1  C   UNL d   1       9.040   5.145   9.301  0.00  0.00    -0.014 C 
ATOM      2  C   UNL d   1       8.114   6.174   9.979  0.00  0.00     0.001 C 
ATOM      3  C   UNL d   1       6.958   5.506  10.725  0.00  0.00    -0.001 C 
ATOM      4  C   UNL d   1       7.548   4.601  11.849  0.00  0.00     0.023 C 
ATOM      5  C   UNL d   1      10.019   6.112   8.608  0.00  0.00     0.126 C 
ATOM      6  C   UNL d   1       9.663   4.270  10.396  0.00  0.00     0.013 C 
ATOM      7  C   UNL d   1       7.807   7.167   8.861  0.00  0.00     0.008 C 
ATOM      8  C   UNL d   1       8.590   3.602  11.277  0.00  0.00     0.010 C 
ATOM      9  C   UNL d   1       9.112   7.222   8.044  0.00  0.00     0.033 C 
ATOM     10  C   UNL d   1       6.001   6.521  11.354  0.00  0.00     0.010 C 
ATOM     11  C   UNL d   1       8.347   4.237   8.254  0.00  0.00     0.018 C 
ATOM     12  C   UNL d   1       6.439   3.969  12.688  0.00  0.00    -0.047 A 
ATOM     13  C   UNL d   1       4.801   5.795  11.957  0.00  0.00     0.039 C 
ATOM     14  C   UNL d   1       5.164   4.570  12.760  0.00  0.00    -0.049 A 
ATOM     15  C   UNL d   1       6.684   2.831  13.477  0.00  0.00     0.011 A 
ATOM     16  C   UNL d   1       4.163   3.996  13.565  0.00  0.00     0.044 A 
ATOM     17  C   UNL d   1       5.684   2.276  14.278  0.00  0.00     0.037 A 
ATOM     18  C   UNL d   1       4.422   2.855  14.319  0.00  0.00     0.066 A 
ENDROOT
BRANCH   5  19
ATOM     19  O   UNL d   1      10.782   5.491   7.591  0.00  0.00    -0.395 OA
ATOM     20  H   UNL d   1      10.158   5.090   6.962  0.00  0.00     0.210 HD
ENDBRANCH   5  19
BRANCH  18  21
ATOM     21  O   UNL d   1       3.446   2.315  15.096  0.00  0.00    -0.361 OA
ATOM     22  H   UNL d   1       2.689   2.078  14.533  0.00  0.00     0.217 HD
ENDBRANCH  18  21
TORSDOF 2
ENDMDL
MODEL 8
REMARK VINA RESULT:      -6.0      2.197      3.927
REMARK  2 active torsions:
REMARK  status: ('A' for Active; 'I' for Inactive)
REMARK    1  A    between atoms: O_1  and  C_7 
REMARK    2  A    between atoms: O_2  and  C_20 
ROOT
ATOM      1  C   UNL d   1       8.942   4.457   9.506  0.00  0.00    -0.014 C 
ATOM      2  C   UNL d   1       8.078   3.342  10.129  0.00  0.00     0.001 C 
ATOM      3  C   UNL d   1       7.215   3.857  11.281  0.00  0.00    -0.001 C 
ATOM      4  C   UNL d   1       6.243   4.944  10.729  0.00  0.00     0.023 C 
ATOM      5  C   UNL d   1       9.710   3.622   8.463  0.00  0.00     0.126 C 
ATOM      6  C   UNL d   1       8.002   5.517   8.919  0.00  0.00     0.013 C 
ATOM      7  C   UNL d   1       9.079   2.220  10.389  0.00  0.00     0.008 C 
ATOM      8  C   UNL d   1       7.018   6.058   9.973  0.00  0.00     0.010 C 
ATOM      9  C   UNL d   1      10.070   2.325   9.214  0.00  0.00     0.033 C 
ATOM     10  C   UNL d   1       6.396   2.748  11.943  0.00  0.00     0.010 C 
ATOM     11  C   UNL d   1       9.931   5.137  10.486  0.00  0.00     0.018 C 
ATOM     12  C   UNL d   1       5.293   5.440  11.816  0.00  0.00    -0.047 A 
ATOM     13  C   UNL d   1       5.672   3.300  13.168  0.00  0.00     0.039 C 
ATOM     14  C   UNL d   1       5.004   4.633  12.937  0.00  0.00    -0.049 A 
ATOM     15  C   UNL d   1       4.617   6.666  11.687  0.00  0.00     0.011 A 
ATOM     16  C   UNL d   1       4.099   5.089  13.914  0.00  0.00     0.044 A 
ATOM     17  C   UNL d   1       3.715   7.103  12.659  0.00  0.00     0.037 A 
ATOM     18  C   UNL d   1       3.459   6.317  13.775  0.00  0.00     0.066 A 
ENDROOT
BRANCH   5  19
ATOM     19  O   UNL d   1      10.860   4.278   7.967  0.00  0.00    -0.395 OA
ATOM     20  H   UNL d   1      10.922   4.081   7.016  0.00  0.00     0.210 HD
ENDBRANCH   5  19
BRANCH  18  21
ATOM     21  O   UNL d   1       2.583   6.741  14.725  0.00  0.00    -0.361 OA
ATOM     22  H   UNL d   1       2.740   7.686  14.899  0.00  0.00     0.217 HD
ENDBRANCH  18  21
TORSDOF 2
ENDMDL
MODEL 9
REMARK VINA RESULT:      -6.0      1.569      3.096
REMARK  2 active torsions:
REMARK  status: ('A' for Active; 'I' for Inactive)
REMARK    1  A    between atoms: O_1  and  C_7 
REMARK    2  A    between atoms: O_2  and  C_20 
ROOT
ATOM      1  C   UNL d   1       7.631   6.246   8.477  0.00  0.00    -0.014 C 
ATOM      2  C   UNL d   1       7.740   4.743   8.803  0.00  0.00     0.001 C 
ATOM      3  C   UNL d   1       7.404   4.444  10.264  0.00  0.00    -0.001 C 
ATOM      4  C   UNL d   1       5.929   4.872  10.534  0.00  0.00     0.023 C 
ATOM      5  C   UNL d   1       8.082   6.214   7.004  0.00  0.00     0.126 C 
ATOM      6  C   UNL d   1       6.175   6.677   8.696  0.00  0.00     0.013 C 
ATOM      7  C   UNL d   1       9.113   4.360   8.258  0.00  0.00     0.008 C 
ATOM      8  C   UNL d   1       5.689   6.349  10.121  0.00  0.00     0.010 C 
ATOM      9  C   UNL d   1       9.271   5.234   6.999  0.00  0.00     0.033 C 
ATOM     10  C   UNL d   1       7.564   2.963  10.612  0.00  0.00     0.010 C 
ATOM     11  C   UNL d   1       8.566   7.161   9.307  0.00  0.00     0.018 C 
ATOM     12  C   UNL d   1       5.504   4.520  11.958  0.00  0.00    -0.047 A 
ATOM     13  C   UNL d   1       7.354   2.758  12.110  0.00  0.00     0.039 C 
ATOM     14  C   UNL d   1       6.160   3.493  12.668  0.00  0.00    -0.049 A 
ATOM     15  C   UNL d   1       4.398   5.144  12.560  0.00  0.00     0.011 A 
ATOM     16  C   UNL d   1       5.734   3.156  13.966  0.00  0.00     0.044 A 
ATOM     17  C   UNL d   1       3.980   4.795  13.846  0.00  0.00     0.037 A 
ATOM     18  C   UNL d   1       4.650   3.805  14.552  0.00  0.00     0.066 A 
ENDROOT
BRANCH   5  19
ATOM     19  O   UNL d   1       8.450   7.487   6.510  0.00  0.00    -0.395 OA
ATOM     20  H   UNL d   1       8.141   7.544   5.589  0.00  0.00     0.210 HD
ENDBRANCH   5  19
BRANCH  18  21
ATOM     21  O   UNL d   1       4.247   3.464  15.805  0.00  0.00    -0.361 OA
ATOM     22  H   UNL d   1       3.348   3.808  15.951  0.00  0.00     0.217 HD
ENDBRANCH  18  21
TORSDOF 2
ENDMDL
