MODEL 1
REMARK VINA RESULT:      -5.2      0.000      0.000
REMARK  3 active torsions:
REMARK  status: ('A' for Active; 'I' for Inactive)
REMARK    1  A    between atoms: C_11  and  C_12 
REMARK    2  A    between atoms: C_11  and  C_13 
REMARK    3  A    between atoms: C_12  and  C_14 
ROOT
ATOM      1  C   UNL d   1       8.937   4.649  11.143  0.00  0.00     0.045 C 
ENDROOT
BRANCH   1   2
ATOM      2  C   UNL d   1       9.310   3.386  10.348  0.00  0.00     0.045 C 
BRANCH   2   3
ATOM      3  C   UNL d   1       8.931   3.465   8.889  0.00  0.00    -0.020 A 
ATOM      4  C   UNL d   1       7.865   2.710   8.411  0.00  0.00     0.037 A 
ATOM      5 BR   UNL d   1       6.916   1.595   9.651  0.00  0.00    -0.049 Br
ATOM      6  C   UNL d   1       7.516   2.781   7.064  0.00  0.00     0.047 A 
ATOM      7 BR   UNL d   1       6.042   1.730   6.411  0.00  0.00    -0.048 Br
ATOM      8  C   UNL d   1       8.236   3.605   6.198  0.00  0.00     0.048 A 
ATOM      9 BR   UNL d   1       7.754   3.703   4.338  0.00  0.00    -0.048 Br
ATOM     10  C   UNL d   1       9.305   4.360   6.684  0.00  0.00     0.047 A 
ATOM     11 BR   UNL d   1      10.306   5.505   5.505  0.00  0.00    -0.048 Br
ATOM     12  C   UNL d   1       9.653   4.288   8.032  0.00  0.00     0.037 A 
ATOM     13 BR   UNL d   1      11.113   5.299   8.759  0.00  0.00    -0.049 Br
ENDBRANCH   2   3
ENDBRANCH   1   2
BRANCH   1  14
ATOM     14  C   UNL d   1       7.496   4.695  11.562  0.00  0.00    -0.020 A 
ATOM     15  C   UNL d   1       6.612   5.565  10.924  0.00  0.00     0.037 A 
ATOM     16 BR   UNL d   1       7.299   6.676   9.520  0.00  0.00    -0.049 Br
ATOM     17  C   UNL d   1       5.274   5.610  11.315  0.00  0.00     0.047 A 
ATOM     18 BR   UNL d   1       4.069   6.821  10.429  0.00  0.00    -0.048 Br
ATOM     19  C   UNL d   1       4.819   4.785  12.343  0.00  0.00     0.048 A 
ATOM     20 BR   UNL d   1       2.971   4.846  12.882  0.00  0.00    -0.048 Br
ATOM     21  C   UNL d   1       5.703   3.914  12.981  0.00  0.00     0.047 A 
ATOM     22 BR   UNL d   1       5.092   2.765  14.398  0.00  0.00    -0.048 Br
ATOM     23  C   UNL d   1       7.041   3.869  12.590  0.00  0.00     0.037 A 
ATOM     24 BR   UNL d   1       8.306   2.696  13.427  0.00  0.00    -0.049 Br
ENDBRANCH   1  14
TORSDOF 3
ENDMDL
MODEL 2
REMARK VINA RESULT:      -5.2      0.113      6.308
REMARK  3 active torsions:
REMARK  status: ('A' for Active; 'I' for Inactive)
REMARK    1  A    between atoms: C_11  and  C_12 
REMARK    2  A    between atoms: C_11  and  C_13 
REMARK    3  A    between atoms: C_12  and  C_14 
ROOT
ATOM      1  C   UNL d   1       9.422   3.493  10.335  0.00  0.00     0.045 C 
ENDROOT
BRANCH   1   2
ATOM      2  C   UNL d   1       9.027   4.754  11.121  0.00  0.00     0.045 C 
BRANCH   2   3
ATOM      3  C   UNL d   1       7.577   4.767  11.542  0.00  0.00    -0.020 A 
ATOM      4  C   UNL d   1       7.148   3.927  12.564  0.00  0.00     0.037 A 
ATOM      5 BR   UNL d   1       8.440   2.781  13.399  0.00  0.00    -0.049 Br
ATOM      6  C   UNL d   1       5.809   3.937  12.951  0.00  0.00     0.047 A 
ATOM      7 BR   UNL d   1       5.223   2.769  14.363  0.00  0.00    -0.048 Br
ATOM      8  C   UNL d   1       4.905   4.787  12.315  0.00  0.00     0.048 A 
ATOM      9 BR   UNL d   1       3.056   4.802  12.849  0.00  0.00    -0.048 Br
ATOM     10  C   UNL d   1       5.341   5.628  11.289  0.00  0.00     0.047 A 
ATOM     11 BR   UNL d   1       4.108   6.809  10.402  0.00  0.00    -0.048 Br
ATOM     12  C   UNL d   1       6.681   5.616  10.902  0.00  0.00     0.037 A 
ATOM     13 BR   UNL d   1       7.342   6.746   9.500  0.00  0.00    -0.049 Br
ENDBRANCH   2   3
ENDBRANCH   1   2
BRANCH   1  14
ATOM     14  C   UNL d   1       9.030   3.537   8.887  0.00  0.00    -0.020 A 
ATOM     15  C   UNL d   1       7.978   2.747   8.425  0.00  0.00     0.037 A 
ATOM     16 BR   UNL d   1       7.072   1.626   9.690  0.00  0.00    -0.049 Br
ATOM     17  C   UNL d   1       7.615   2.785   7.078  0.00  0.00     0.047 A 
ATOM     18 BR   UNL d   1       6.164   1.684   6.457  0.00  0.00    -0.048 Br
ATOM     19  C   UNL d   1       8.303   3.614   6.194  0.00  0.00     0.048 A 
ATOM     20 BR   UNL d   1       7.802   3.668   4.335  0.00  0.00    -0.048 Br
ATOM     21  C   UNL d   1       9.356   4.405   6.655  0.00  0.00     0.047 A 
ATOM     22 BR   UNL d   1      10.315   5.557   5.450  0.00  0.00    -0.048 Br
ATOM     23  C   UNL d   1       9.719   4.366   8.002  0.00  0.00     0.037 A 
ATOM     24 BR   UNL d   1      11.157   5.428   8.698  0.00  0.00    -0.049 Br
ENDBRANCH   1  14
TORSDOF 3
ENDMDL
MODEL 3
REMARK VINA RESULT:      -5.1      0.112      3.585
REMARK  3 active torsions:
REMARK  status: ('A' for Active; 'I' for Inactive)
REMARK    1  A    between atoms: C_11  and  C_12 
REMARK    2  A    between atoms: C_11  and  C_13 
REMARK    3  A    between atoms: C_12  and  C_14 
ROOT
ATOM      1  C   UNL d   1       9.021   4.745  11.108  0.00  0.00     0.045 C 
ENDROOT
BRANCH   1   2
ATOM      2  C   UNL d   1       9.421   3.481  10.329  0.00  0.00     0.045 C 
BRANCH   2   3
ATOM      3  C   UNL d   1       9.031   3.529   8.872  0.00  0.00    -0.020 A 
ATOM      4  C   UNL d   1       9.720   4.365   8.000  0.00  0.00     0.037 A 
ATOM      5 BR   UNL d   1      11.154   5.428   8.705  0.00  0.00    -0.049 Br
ATOM      6  C   UNL d   1       9.359   4.410   6.654  0.00  0.00     0.047 A 
ATOM      7 BR   UNL d   1      10.315   5.573   5.456  0.00  0.00    -0.048 Br
ATOM      8  C   UNL d   1       8.309   3.621   6.186  0.00  0.00     0.048 A 
ATOM      9 BR   UNL d   1       7.810   3.683   4.328  0.00  0.00    -0.048 Br
ATOM     10  C   UNL d   1       7.620   2.784   7.066  0.00  0.00     0.047 A 
ATOM     11 BR   UNL d   1       6.172   1.685   6.437  0.00  0.00    -0.048 Br
ATOM     12  C   UNL d   1       7.983   2.739   8.412  0.00  0.00     0.037 A 
ATOM     13 BR   UNL d   1       7.075   1.611   9.671  0.00  0.00    -0.049 Br
ENDBRANCH   2   3
ENDBRANCH   1   2
BRANCH   1  14
ATOM     14  C   UNL d   1       7.581   4.762  11.533  0.00  0.00    -0.020 A 
ATOM     15  C   UNL d   1       7.148   3.927  12.563  0.00  0.00     0.037 A 
ATOM     16 BR   UNL d   1       8.440   2.781  13.396  0.00  0.00    -0.049 Br
ATOM     17  C   UNL d   1       5.810   3.942  12.956  0.00  0.00     0.047 A 
ATOM     18 BR   UNL d   1       5.227   2.779  14.375  0.00  0.00    -0.048 Br
ATOM     19  C   UNL d   1       4.905   4.791  12.320  0.00  0.00     0.048 A 
ATOM     20 BR   UNL d   1       3.057   4.811  12.864  0.00  0.00    -0.048 Br
ATOM     21  C   UNL d   1       5.338   5.626  11.290  0.00  0.00     0.047 A 
ATOM     22 BR   UNL d   1       4.104   6.807  10.405  0.00  0.00    -0.048 Br
ATOM     23  C   UNL d   1       6.676   5.612  10.897  0.00  0.00     0.037 A 
ATOM     24 BR   UNL d   1       7.334   6.734   9.488  0.00  0.00    -0.049 Br
ENDBRANCH   1  14
TORSDOF 3
ENDMDL
MODEL 4
REMARK VINA RESULT:      -5.1      0.106      2.536
REMARK  3 active torsions:
REMARK  status: ('A' for Active; 'I' for Inactive)
REMARK    1  A    between atoms: C_11  and  C_12 
REMARK    2  A    between atoms: C_11  and  C_13 
REMARK    3  A    between atoms: C_12  and  C_14 
ROOT
ATOM      1  C   UNL d   1       9.007   4.746  11.104  0.00  0.00     0.045 C 
ENDROOT
BRANCH   1   2
ATOM      2  C   UNL d   1       9.400   3.486  10.316  0.00  0.00     0.045 C 
BRANCH   2   3
ATOM      3  C   UNL d   1       9.010   3.546   8.859  0.00  0.00    -0.020 A 
ATOM      4  C   UNL d   1       7.957   2.764   8.394  0.00  0.00     0.037 A 
ATOM      5 BR   UNL d   1       7.042   1.636   9.647  0.00  0.00    -0.049 Br
ATOM      6  C   UNL d   1       7.598   2.818   7.049  0.00  0.00     0.047 A 
ATOM      7 BR   UNL d   1       6.144   1.730   6.413  0.00  0.00    -0.048 Br
ATOM      8  C   UNL d   1       8.292   3.652   6.173  0.00  0.00     0.048 A 
ATOM      9 BR   UNL d   1       7.796   3.727   4.315  0.00  0.00    -0.048 Br
ATOM     10  C   UNL d   1       9.348   4.434   6.646  0.00  0.00     0.047 A 
ATOM     11 BR   UNL d   1      10.315   5.593   5.453  0.00  0.00    -0.048 Br
ATOM     12  C   UNL d   1       9.707   4.379   7.992  0.00  0.00     0.037 A 
ATOM     13 BR   UNL d   1      11.148   5.428   8.702  0.00  0.00    -0.049 Br
ENDBRANCH   2   3
ENDBRANCH   1   2
BRANCH   1  14
ATOM     14  C   UNL d   1       7.570   4.763  11.539  0.00  0.00    -0.020 A 
ATOM     15  C   UNL d   1       7.144   3.928  12.571  0.00  0.00     0.037 A 
ATOM     16 BR   UNL d   1       8.441   2.780  13.394  0.00  0.00    -0.049 Br
ATOM     17  C   UNL d   1       5.808   3.942  12.973  0.00  0.00     0.047 A 
ATOM     18 BR   UNL d   1       5.235   2.779  14.395  0.00  0.00    -0.048 Br
ATOM     19  C   UNL d   1       4.899   4.793  12.345  0.00  0.00     0.048 A 
ATOM     20 BR   UNL d   1       3.056   4.813  12.901  0.00  0.00    -0.048 Br
ATOM     21  C   UNL d   1       5.325   5.629  11.312  0.00  0.00     0.047 A 
ATOM     22 BR   UNL d   1       4.086   6.812  10.437  0.00  0.00    -0.048 Br
ATOM     23  C   UNL d   1       6.661   5.614  10.910  0.00  0.00     0.037 A 
ATOM     24 BR   UNL d   1       7.310   6.738   9.497  0.00  0.00    -0.049 Br
ENDBRANCH   1  14
TORSDOF 3
ENDMDL
MODEL 5
REMARK VINA RESULT:      -5.1      0.103      2.536
REMARK  3 active torsions:
REMARK  status: ('A' for Active; 'I' for Inactive)
REMARK    1  A    between atoms: C_11  and  C_12 
REMARK    2  A    between atoms: C_11  and  C_13 
REMARK    3  A    between atoms: C_12  and  C_14 
ROOT
ATOM      1  C   UNL d   1       8.993   4.748  11.098  0.00  0.00     0.045 C 
ENDROOT
BRANCH   1   2
ATOM      2  C   UNL d   1       9.394   3.487  10.316  0.00  0.00     0.045 C 
BRANCH   2   3
ATOM      3  C   UNL d   1       9.009   3.538   8.858  0.00  0.00    -0.020 A 
ATOM      4  C   UNL d   1       9.705   4.373   7.990  0.00  0.00     0.037 A 
ATOM      5 BR   UNL d   1      11.141   5.427   8.702  0.00  0.00    -0.049 Br
ATOM      6  C   UNL d   1       9.349   4.422   6.643  0.00  0.00     0.047 A 
ATOM      7 BR   UNL d   1      10.315   5.582   5.450  0.00  0.00    -0.048 Br
ATOM      8  C   UNL d   1       8.297   3.638   6.170  0.00  0.00     0.048 A 
ATOM      9 BR   UNL d   1       7.805   3.706   4.311  0.00  0.00    -0.048 Br
ATOM     10  C   UNL d   1       7.602   2.803   7.046  0.00  0.00     0.047 A 
ATOM     11 BR   UNL d   1       6.150   1.711   6.410  0.00  0.00    -0.048 Br
ATOM     12  C   UNL d   1       7.959   2.754   8.393  0.00  0.00     0.037 A 
ATOM     13 BR   UNL d   1       7.042   1.629   9.647  0.00  0.00    -0.049 Br
ENDBRANCH   2   3
ENDBRANCH   1   2
BRANCH   1  14
ATOM     14  C   UNL d   1       7.556   4.758  11.532  0.00  0.00    -0.020 A 
ATOM     15  C   UNL d   1       6.642   5.600  10.899  0.00  0.00     0.037 A 
ATOM     16 BR   UNL d   1       7.283   6.721   9.481  0.00  0.00    -0.049 Br
ATOM     17  C   UNL d   1       5.307   5.612  11.304  0.00  0.00     0.047 A 
ATOM     18 BR   UNL d   1       4.060   6.783  10.424  0.00  0.00    -0.048 Br
ATOM     19  C   UNL d   1       4.885   4.781  12.342  0.00  0.00     0.048 A 
ATOM     20 BR   UNL d   1       3.043   4.796  12.901  0.00  0.00    -0.048 Br
ATOM     21  C   UNL d   1       5.800   3.938  12.976  0.00  0.00     0.047 A 
ATOM     22 BR   UNL d   1       5.236   2.782  14.406  0.00  0.00    -0.048 Br
ATOM     23  C   UNL d   1       7.135   3.927  12.570  0.00  0.00     0.037 A 
ATOM     24 BR   UNL d   1       8.440   2.794  13.401  0.00  0.00    -0.049 Br
ENDBRANCH   1  14
TORSDOF 3
ENDMDL
MODEL 6
REMARK VINA RESULT:      -5.1      0.072      6.308
REMARK  3 active torsions:
REMARK  status: ('A' for Active; 'I' for Inactive)
REMARK    1  A    between atoms: C_11  and  C_12 
REMARK    2  A    between atoms: C_11  and  C_13 
REMARK    3  A    between atoms: C_12  and  C_14 
ROOT
ATOM      1  C   UNL d   1       9.285   3.460  10.314  0.00  0.00     0.045 C 
ENDROOT
BRANCH   1   2
ATOM      2  C   UNL d   1       8.911   4.717  11.116  0.00  0.00     0.045 C 
BRANCH   2   3
ATOM      3  C   UNL d   1       7.465   4.745  11.544  0.00  0.00    -0.020 A 
ATOM      4  C   UNL d   1       6.573   5.602  10.906  0.00  0.00     0.037 A 
ATOM      5 BR   UNL d   1       7.240   6.717   9.494  0.00  0.00    -0.049 Br
ATOM      6  C   UNL d   1       5.237   5.630  11.302  0.00  0.00     0.047 A 
ATOM      7 BR   UNL d   1       4.013   6.821  10.418  0.00  0.00    -0.048 Br
ATOM      8  C   UNL d   1       4.798   4.802  12.335  0.00  0.00     0.048 A 
ATOM      9 BR   UNL d   1       2.953   4.840  12.882  0.00  0.00    -0.048 Br
ATOM     10  C   UNL d   1       5.697   3.945  12.971  0.00  0.00     0.047 A 
ATOM     11 BR   UNL d   1       5.107   2.793  14.395  0.00  0.00    -0.048 Br
ATOM     12  C   UNL d   1       7.034   3.917  12.575  0.00  0.00     0.037 A 
ATOM     13 BR   UNL d   1       8.317   2.763  13.410  0.00  0.00    -0.049 Br
ENDBRANCH   2   3
ENDBRANCH   1   2
BRANCH   1  14
ATOM     14  C   UNL d   1       8.907   3.534   8.863  0.00  0.00    -0.020 A 
ATOM     15  C   UNL d   1       9.632   4.350   7.995  0.00  0.00     0.037 A 
ATOM     16 BR   UNL d   1      11.101   5.351   8.716  0.00  0.00    -0.049 Br
ATOM     17  C   UNL d   1       9.280   4.422   6.646  0.00  0.00     0.047 A 
ATOM     18 BR   UNL d   1      10.287   5.557   5.464  0.00  0.00    -0.048 Br
ATOM     19  C   UNL d   1       8.203   3.677   6.166  0.00  0.00     0.048 A 
ATOM     20 BR   UNL d   1       7.717   3.775   4.306  0.00  0.00    -0.048 Br
ATOM     21  C   UNL d   1       7.477   2.861   7.035  0.00  0.00     0.047 A 
ATOM     22 BR   UNL d   1       5.992   1.823   6.389  0.00  0.00    -0.048 Br
ATOM     23  C   UNL d   1       7.830   2.790   8.383  0.00  0.00     0.037 A 
ATOM     24 BR   UNL d   1       6.873   1.688   9.627  0.00  0.00    -0.049 Br
ENDBRANCH   1  14
TORSDOF 3
ENDMDL
MODEL 7
REMARK VINA RESULT:      -5.1      9.057     12.778
REMARK  3 active torsions:
REMARK  status: ('A' for Active; 'I' for Inactive)
REMARK    1  A    between atoms: C_11  and  C_12 
REMARK    2  A    between atoms: C_11  and  C_13 
REMARK    3  A    between atoms: C_12  and  C_14 
ROOT
ATOM      1  C   UNL d   1      14.890   0.283   4.334  0.00  0.00     0.045 C 
ENDROOT
BRANCH   1   2
ATOM      2  C   UNL d   1      14.285  -1.128   4.257  0.00  0.00     0.045 C 
BRANCH   2   3
ATOM      3  C   UNL d   1      14.312  -1.863   5.575  0.00  0.00    -0.020 A 
ATOM      4  C   UNL d   1      15.102  -2.999   5.715  0.00  0.00     0.037 A 
ATOM      5 BR   UNL d   1      16.135  -3.578   4.205  0.00  0.00    -0.049 Br
ATOM      6  C   UNL d   1      15.126  -3.679   6.932  0.00  0.00     0.047 A 
ATOM      7 BR   UNL d   1      16.219  -5.251   7.116  0.00  0.00    -0.048 Br
ATOM      8  C   UNL d   1      14.358  -3.222   8.002  0.00  0.00     0.048 A 
ATOM      9 BR   UNL d   1      14.390  -4.161   9.682  0.00  0.00    -0.048 Br
ATOM     10  C   UNL d   1      13.566  -2.082   7.855  0.00  0.00     0.047 A 
ATOM     11 BR   UNL d   1      12.503  -1.434   9.322  0.00  0.00    -0.048 Br
ATOM     12  C   UNL d   1      13.543  -1.402   6.637  0.00  0.00     0.037 A 
ATOM     13 BR   UNL d   1      12.475   0.169   6.372  0.00  0.00    -0.049 Br
ENDBRANCH   2   3
ENDBRANCH   1   2
BRANCH   1  14
ATOM     14  C   UNL d   1      15.897   0.569   3.257  0.00  0.00    -0.020 A 
ATOM     15  C   UNL d   1      15.470   1.008   2.004  0.00  0.00     0.037 A 
ATOM     16 BR   UNL d   1      13.586   1.227   1.719  0.00  0.00    -0.049 Br
ATOM     17  C   UNL d   1      16.405   1.271   1.001  0.00  0.00     0.047 A 
ATOM     18 BR   UNL d   1      15.799   1.871  -0.724  0.00  0.00    -0.048 Br
ATOM     19  C   UNL d   1      17.765   1.096   1.253  0.00  0.00     0.048 A 
ATOM     20 BR   UNL d   1      19.055   1.460  -0.130  0.00  0.00    -0.048 Br
ATOM     21  C   UNL d   1      18.192   0.657   2.507  0.00  0.00     0.047 A 
ATOM     22 BR   UNL d   1      20.065   0.414   2.872  0.00  0.00    -0.048 Br
ATOM     23  C   UNL d   1      17.257   0.394   3.508  0.00  0.00     0.037 A 
ATOM     24 BR   UNL d   1      17.779  -0.213   5.252  0.00  0.00    -0.049 Br
ENDBRANCH   1  14
TORSDOF 3
ENDMDL
MODEL 8
REMARK VINA RESULT:      -5.1      9.083     12.934
REMARK  3 active torsions:
REMARK  status: ('A' for Active; 'I' for Inactive)
REMARK    1  A    between atoms: C_11  and  C_12 
REMARK    2  A    between atoms: C_11  and  C_13 
REMARK    3  A    between atoms: C_12  and  C_14 
ROOT
ATOM      1  C   UNL d   1      14.953   0.155   4.441  0.00  0.00     0.045 C 
ENDROOT
BRANCH   1   2
ATOM      2  C   UNL d   1      14.399  -1.276   4.348  0.00  0.00     0.045 C 
BRANCH   2   3
ATOM      3  C   UNL d   1      14.400  -2.005   5.670  0.00  0.00    -0.020 A 
ATOM      4  C   UNL d   1      13.611  -1.538   6.715  0.00  0.00     0.037 A 
ATOM      5 BR   UNL d   1      12.545   0.030   6.418  0.00  0.00    -0.049 Br
ATOM      6  C   UNL d   1      13.613  -2.209   7.937  0.00  0.00     0.047 A 
ATOM      7 BR   UNL d   1      12.522  -1.553   9.379  0.00  0.00    -0.048 Br
ATOM      8  C   UNL d   1      14.405  -3.345   8.108  0.00  0.00     0.048 A 
ATOM      9 BR   UNL d   1      14.408  -4.272   9.794  0.00  0.00    -0.048 Br
ATOM     10  C   UNL d   1      15.195  -3.808   7.055  0.00  0.00     0.047 A 
ATOM     11 BR   UNL d   1      16.290  -5.375   7.272  0.00  0.00    -0.048 Br
ATOM     12  C   UNL d   1      15.192  -3.136   5.833  0.00  0.00     0.037 A 
ATOM     13 BR   UNL d   1      16.256  -3.722   4.349  0.00  0.00    -0.049 Br
ENDBRANCH   2   3
ENDBRANCH   1   2
BRANCH   1  14
ATOM     14  C   UNL d   1      15.903   0.508   3.333  0.00  0.00    -0.020 A 
ATOM     15  C   UNL d   1      17.279   0.397   3.534  0.00  0.00     0.037 A 
ATOM     16 BR   UNL d   1      17.893  -0.211   5.246  0.00  0.00    -0.049 Br
ATOM     17  C   UNL d   1      18.163   0.727   2.506  0.00  0.00     0.047 A 
ATOM     18 BR   UNL d   1      20.058   0.574   2.801  0.00  0.00    -0.048 Br
ATOM     19  C   UNL d   1      17.671   1.167   1.277  0.00  0.00     0.048 A 
ATOM     20 BR   UNL d   1      18.891   1.622  -0.142  0.00  0.00    -0.048 Br
ATOM     21  C   UNL d   1      16.295   1.278   1.076  0.00  0.00     0.047 A 
ATOM     22 BR   UNL d   1      15.598   1.879  -0.613  0.00  0.00    -0.048 Br
ATOM     23  C   UNL d   1      15.412   0.948   2.105  0.00  0.00     0.037 A 
ATOM     24 BR   UNL d   1      13.510   1.080   1.892  0.00  0.00    -0.049 Br
ENDBRANCH   1  14
TORSDOF 3
ENDMDL
MODEL 9
REMARK VINA RESULT:      -5.1      9.098     11.677
REMARK  3 active torsions:
REMARK  status: ('A' for Active; 'I' for Inactive)
REMARK    1  A    between atoms: C_11  and  C_12 
REMARK    2  A    between atoms: C_11  and  C_13 
REMARK    3  A    between atoms: C_12  and  C_14 
ROOT
ATOM      1  C   UNL d   1      14.413  -1.295   4.255  0.00  0.00     0.045 C 
ENDROOT
BRANCH   1   2
ATOM      2  C   UNL d   1      14.889   0.164   4.333  0.00  0.00     0.045 C 
BRANCH   2   3
ATOM      3  C   UNL d   1      15.894   0.524   3.266  0.00  0.00    -0.020 A 
ATOM      4  C   UNL d   1      17.254   0.403   3.531  0.00  0.00     0.037 A 
ATOM      5 BR   UNL d   1      17.789  -0.226   5.263  0.00  0.00    -0.049 Br
ATOM      6  C   UNL d   1      18.183   0.736   2.547  0.00  0.00     0.047 A 
ATOM      7 BR   UNL d   1      20.062   0.570   2.923  0.00  0.00    -0.048 Br
ATOM      8  C   UNL d   1      17.748   1.190   1.302  0.00  0.00     0.048 A 
ATOM      9 BR   UNL d   1      19.030   1.650  -0.058  0.00  0.00    -0.048 Br
ATOM     10  C   UNL d   1      16.381   1.310   1.042  0.00  0.00     0.047 A 
ATOM     11 BR   UNL d   1      15.763   1.931  -0.671  0.00  0.00    -0.048 Br
ATOM     12  C   UNL d   1      15.453   0.976   2.028  0.00  0.00     0.037 A 
ATOM     13 BR   UNL d   1      13.563   1.120   1.733  0.00  0.00    -0.049 Br
ENDBRANCH   2   3
ENDBRANCH   1   2
BRANCH   1  14
ATOM     14  C   UNL d   1      14.411  -2.002   5.580  0.00  0.00    -0.020 A 
ATOM     15  C   UNL d   1      13.621  -1.523   6.625  0.00  0.00     0.037 A 
ATOM     16 BR   UNL d   1      12.559   0.042   6.306  0.00  0.00    -0.049 Br
ATOM     17  C   UNL d   1      13.621  -2.178   7.857  0.00  0.00     0.047 A 
ATOM     18 BR   UNL d   1      12.529  -1.501   9.289  0.00  0.00    -0.048 Br
ATOM     19  C   UNL d   1      14.410  -3.312   8.044  0.00  0.00     0.048 A 
ATOM     20 BR   UNL d   1      14.410  -4.217   9.743  0.00  0.00    -0.048 Br
ATOM     21  C   UNL d   1      15.201  -3.792   6.999  0.00  0.00     0.047 A 
ATOM     22 BR   UNL d   1      16.293  -5.357   7.237  0.00  0.00    -0.048 Br
ATOM     23  C   UNL d   1      15.201  -3.136   5.767  0.00  0.00     0.037 A 
ATOM     24 BR   UNL d   1      16.266  -3.744   4.292  0.00  0.00    -0.049 Br
ENDBRANCH   1  14
TORSDOF 3
ENDMDL
