MODEL 1
REMARK VINA RESULT:      -6.8      0.000      0.000
REMARK  2 active torsions:
REMARK  status: ('A' for Active; 'I' for Inactive)
REMARK    1  A    between atoms: O_1  and  C_7 
REMARK    2  A    between atoms: O_2  and  C_20 
ROOT
ATOM      1  C   UNL d   1       9.855   5.685   7.970  0.00  0.00    -0.014 C 
ATOM      2  C   UNL d   1       8.684   6.478   8.582  0.00  0.00     0.001 C 
ATOM      3  C   UNL d   1       7.843   5.624   9.530  0.00  0.00    -0.001 C 
ATOM      4  C   UNL d   1       8.747   5.147  10.707  0.00  0.00     0.023 C 
ATOM      5  C   UNL d   1      10.437   6.775   7.048  0.00  0.00     0.126 C 
ATOM      6  C   UNL d   1      10.781   5.243   9.110  0.00  0.00     0.013 C 
ATOM      7  C   UNL d   1       8.020   7.125   7.370  0.00  0.00     0.008 C 
ATOM      8  C   UNL d   1      10.023   4.436  10.182  0.00  0.00     0.010 C 
ATOM      9  C   UNL d   1       9.195   7.440   6.425  0.00  0.00     0.033 C 
ATOM     10  C   UNL d   1       6.644   6.385  10.100  0.00  0.00     0.010 C 
ATOM     11  C   UNL d   1       9.437   4.445   7.140  0.00  0.00     0.018 C 
ATOM     12  C   UNL d   1       7.943   4.356  11.737  0.00  0.00    -0.047 A 
ATOM     13  C   UNL d   1       5.772   5.438  10.920  0.00  0.00     0.039 C 
ATOM     14  C   UNL d   1       6.548   4.538  11.850  0.00  0.00    -0.049 A 
ATOM     15  C   UNL d   1       8.578   3.499  12.652  0.00  0.00     0.011 A 
ATOM     16  C   UNL d   1       5.826   3.829  12.827  0.00  0.00     0.044 A 
ATOM     17  C   UNL d   1       7.851   2.807  13.623  0.00  0.00     0.037 A 
ATOM     18  C   UNL d   1       6.474   2.968  13.708  0.00  0.00     0.066 A 
ENDROOT
BRANCH   5  19
ATOM     19  O   UNL d   1      11.306   6.257   6.059  0.00  0.00    -0.395 OA
ATOM     20  H   UNL d   1      10.790   5.641   5.511  0.00  0.00     0.210 HD
ENDBRANCH   5  19
BRANCH  18  21
ATOM     21  O   UNL d   1       5.763   2.293  14.650  0.00  0.00    -0.361 OA
ATOM     22  H   UNL d   1       5.681   1.362  14.377  0.00  0.00     0.217 HD
ENDBRANCH  18  21
TORSDOF 2
ENDMDL
MODEL 2
REMARK VINA RESULT:      -6.5      1.679      2.904
REMARK  2 active torsions:
REMARK  status: ('A' for Active; 'I' for Inactive)
REMARK    1  A    between atoms: O_1  and  C_7 
REMARK    2  A    between atoms: O_2  and  C_20 
ROOT
ATOM      1  C   UNL d   1       9.545   6.515   6.846  0.00  0.00    -0.014 C 
ATOM      2  C   UNL d   1       9.123   5.038   6.715  0.00  0.00     0.001 C 
ATOM      3  C   UNL d   1       9.327   4.262   8.016  0.00  0.00    -0.001 C 
ATOM      4  C   UNL d   1       8.437   4.903   9.124  0.00  0.00     0.023 C 
ATOM      5  C   UNL d   1       9.287   6.976   5.399  0.00  0.00     0.126 C 
ATOM      6  C   UNL d   1       8.651   7.175   7.903  0.00  0.00     0.013 C 
ATOM      7  C   UNL d   1       9.838   4.575   5.449  0.00  0.00     0.008 C 
ATOM      8  C   UNL d   1       8.706   6.427   9.249  0.00  0.00     0.010 C 
ATOM      9  C   UNL d   1       9.821   5.816   4.537  0.00  0.00     0.033 C 
ATOM     10  C   UNL d   1       8.965   2.782   7.881  0.00  0.00     0.010 C 
ATOM     11  C   UNL d   1      11.032   6.735   7.225  0.00  0.00     0.018 C 
ATOM     12  C   UNL d   1       8.531   4.119  10.431  0.00  0.00    -0.047 A 
ATOM     13  C   UNL d   1       9.325   2.041   9.165  0.00  0.00     0.039 C 
ATOM     14  C   UNL d   1       8.911   2.760  10.426  0.00  0.00    -0.049 A 
ATOM     15  C   UNL d   1       8.159   4.701  11.655  0.00  0.00     0.011 A 
ATOM     16  C   UNL d   1       8.960   2.041  11.634  0.00  0.00     0.044 A 
ATOM     17  C   UNL d   1       8.203   3.974  12.847  0.00  0.00     0.037 A 
ATOM     18  C   UNL d   1       8.608   2.646  12.838  0.00  0.00     0.066 A 
ENDROOT
BRANCH   5  19
ATOM     19  O   UNL d   1       9.925   8.199   5.086  0.00  0.00    -0.395 OA
ATOM     20  H   UNL d   1      10.420   8.481   5.875  0.00  0.00     0.210 HD
ENDBRANCH   5  19
BRANCH  18  21
ATOM     21  O   UNL d   1       8.655   1.937  13.997  0.00  0.00    -0.361 OA
ATOM     22  H   UNL d   1       7.763   1.604  14.200  0.00  0.00     0.217 HD
ENDBRANCH  18  21
TORSDOF 2
ENDMDL
MODEL 3
REMARK VINA RESULT:      -6.5      1.510      6.753
REMARK  2 active torsions:
REMARK  status: ('A' for Active; 'I' for Inactive)
REMARK    1  A    between atoms: O_1  and  C_7 
REMARK    2  A    between atoms: O_2  and  C_20 
ROOT
ATOM      1  C   UNL d   1       4.717   4.612  12.484  0.00  0.00    -0.014 C 
ATOM      2  C   UNL d   1       6.130   4.129  12.865  0.00  0.00     0.001 C 
ATOM      3  C   UNL d   1       7.110   4.236  11.697  0.00  0.00    -0.001 C 
ATOM      4  C   UNL d   1       7.228   5.734  11.281  0.00  0.00     0.023 C 
ATOM      5  C   UNL d   1       3.988   4.318  13.810  0.00  0.00     0.126 C 
ATOM      6  C   UNL d   1       4.804   6.097  12.111  0.00  0.00     0.013 C 
ATOM      7  C   UNL d   1       5.879   2.767  13.508  0.00  0.00     0.008 C 
ATOM      8  C   UNL d   1       5.831   6.347  10.990  0.00  0.00     0.010 C 
ATOM      9  C   UNL d   1       4.536   2.943  14.240  0.00  0.00     0.033 C 
ATOM     10  C   UNL d   1       8.502   3.706  12.048  0.00  0.00     0.010 C 
ATOM     11  C   UNL d   1       4.054   3.830  11.321  0.00  0.00     0.018 C 
ATOM     12  C   UNL d   1       8.259   5.919  10.170  0.00  0.00    -0.047 A 
ATOM     13  C   UNL d   1       9.386   3.709  10.803  0.00  0.00     0.039 C 
ATOM     14  C   UNL d   1       9.293   4.976   9.988  0.00  0.00    -0.049 A 
ATOM     15  C   UNL d   1       8.260   7.071   9.364  0.00  0.00     0.011 A 
ATOM     16  C   UNL d   1      10.258   5.179   8.984  0.00  0.00     0.044 A 
ATOM     17  C   UNL d   1       9.227   7.264   8.376  0.00  0.00     0.037 A 
ATOM     18  C   UNL d   1      10.224   6.316   8.182  0.00  0.00     0.066 A 
ENDROOT
BRANCH   5  19
ATOM     19  O   UNL d   1       2.580   4.304  13.677  0.00  0.00    -0.395 OA
ATOM     20  H   UNL d   1       2.298   3.372  13.660  0.00  0.00     0.210 HD
ENDBRANCH   5  19
BRANCH  18  21
ATOM     21  O   UNL d   1      11.166   6.500   7.219  0.00  0.00    -0.361 OA
ATOM     22  H   UNL d   1      12.011   6.730   7.644  0.00  0.00     0.217 HD
ENDBRANCH  18  21
TORSDOF 2
ENDMDL
MODEL 4
REMARK VINA RESULT:      -6.4      2.982      5.736
REMARK  2 active torsions:
REMARK  status: ('A' for Active; 'I' for Inactive)
REMARK    1  A    between atoms: O_1  and  C_7 
REMARK    2  A    between atoms: O_2  and  C_20 
ROOT
ATOM      1  C   UNL d   1       4.150   6.758   8.671  0.00  0.00    -0.014 C 
ATOM      2  C   UNL d   1       4.786   6.796  10.074  0.00  0.00     0.001 C 
ATOM      3  C   UNL d   1       6.127   6.064  10.121  0.00  0.00    -0.001 C 
ATOM      4  C   UNL d   1       7.115   6.770   9.143  0.00  0.00     0.023 C 
ATOM      5  C   UNL d   1       2.832   7.496   8.975  0.00  0.00     0.126 C 
ATOM      6  C   UNL d   1       5.089   7.487   7.701  0.00  0.00     0.013 C 
ATOM      7  C   UNL d   1       3.654   6.341  10.991  0.00  0.00     0.008 C 
ATOM      8  C   UNL d   1       6.509   6.887   7.719  0.00  0.00     0.010 C 
ATOM      9  C   UNL d   1       2.387   6.921  10.334  0.00  0.00     0.033 C 
ATOM     10  C   UNL d   1       6.740   6.047  11.522  0.00  0.00     0.010 C 
ATOM     11  C   UNL d   1       3.858   5.336   8.128  0.00  0.00     0.018 C 
ATOM     12  C   UNL d   1       8.503   6.136   9.206  0.00  0.00    -0.047 A 
ATOM     13  C   UNL d   1       7.998   5.182  11.527  0.00  0.00     0.039 C 
ATOM     14  C   UNL d   1       8.916   5.427  10.354  0.00  0.00    -0.049 A 
ATOM     15  C   UNL d   1       9.431   6.316   8.166  0.00  0.00     0.011 A 
ATOM     16  C   UNL d   1      10.210   4.878  10.412  0.00  0.00     0.044 A 
ATOM     17  C   UNL d   1      10.716   5.773   8.238  0.00  0.00     0.037 A 
ATOM     18  C   UNL d   1      11.104   5.050   9.359  0.00  0.00     0.066 A 
ENDROOT
BRANCH   5  19
ATOM     19  O   UNL d   1       1.849   7.306   7.977  0.00  0.00    -0.395 OA
ATOM     20  H   UNL d   1       1.490   8.182   7.750  0.00  0.00     0.210 HD
ENDBRANCH   5  19
BRANCH  18  21
ATOM     21  O   UNL d   1      12.353   4.518   9.431  0.00  0.00    -0.361 OA
ATOM     22  H   UNL d   1      12.415   3.773   8.808  0.00  0.00     0.217 HD
ENDBRANCH  18  21
TORSDOF 2
ENDMDL
MODEL 5
REMARK VINA RESULT:      -6.3      2.519      3.717
REMARK  2 active torsions:
REMARK  status: ('A' for Active; 'I' for Inactive)
REMARK    1  A    between atoms: O_1  and  C_7 
REMARK    2  A    between atoms: O_2  and  C_20 
ROOT
ATOM      1  C   UNL d   1       9.324   4.899   9.694  0.00  0.00    -0.014 C 
ATOM      2  C   UNL d   1       8.611   5.949   8.819  0.00  0.00     0.001 C 
ATOM      3  C   UNL d   1       7.102   5.973   9.060  0.00  0.00    -0.001 C 
ATOM      4  C   UNL d   1       6.841   6.354  10.549  0.00  0.00     0.023 C 
ATOM      5  C   UNL d   1      10.764   5.081   9.176  0.00  0.00     0.126 C 
ATOM      6  C   UNL d   1       9.114   5.282  11.164  0.00  0.00     0.013 C 
ATOM      7  C   UNL d   1       9.139   5.661   7.416  0.00  0.00     0.008 C 
ATOM      8  C   UNL d   1       7.620   5.419  11.513  0.00  0.00     0.010 C 
ATOM      9  C   UNL d   1      10.597   5.221   7.650  0.00  0.00     0.033 C 
ATOM     10  C   UNL d   1       6.378   6.972   8.156  0.00  0.00     0.010 C 
ATOM     11  C   UNL d   1       8.852   3.440   9.472  0.00  0.00     0.018 C 
ATOM     12  C   UNL d   1       5.346   6.477  10.834  0.00  0.00    -0.047 A 
ATOM     13  C   UNL d   1       4.869   6.843   8.346  0.00  0.00     0.039 C 
ATOM     14  C   UNL d   1       4.437   6.750   9.789  0.00  0.00    -0.049 A 
ATOM     15  C   UNL d   1       4.849   6.413  12.148  0.00  0.00     0.011 A 
ATOM     16  C   UNL d   1       3.067   6.896  10.072  0.00  0.00     0.044 A 
ATOM     17  C   UNL d   1       3.488   6.568  12.417  0.00  0.00     0.037 A 
ATOM     18  C   UNL d   1       2.595   6.805  11.379  0.00  0.00     0.066 A 
ENDROOT
BRANCH   5  19
ATOM     19  O   UNL d   1      11.613   4.002   9.513  0.00  0.00    -0.395 OA
ATOM     20  H   UNL d   1      12.079   3.732   8.702  0.00  0.00     0.210 HD
ENDBRANCH   5  19
BRANCH  18  21
ATOM     21  O   UNL d   1       1.269   6.953  11.637  0.00  0.00    -0.361 OA
ATOM     22  H   UNL d   1       1.022   6.362  12.370  0.00  0.00     0.217 HD
ENDBRANCH  18  21
TORSDOF 2
ENDMDL
MODEL 6
REMARK VINA RESULT:      -6.3      2.279      6.187
REMARK  2 active torsions:
REMARK  status: ('A' for Active; 'I' for Inactive)
REMARK    1  A    between atoms: O_1  and  C_7 
REMARK    2  A    between atoms: O_2  and  C_20 
ROOT
ATOM      1  C   UNL d   1       4.039   5.980  11.788  0.00  0.00    -0.014 C 
ATOM      2  C   UNL d   1       4.265   6.277  10.292  0.00  0.00     0.001 C 
ATOM      3  C   UNL d   1       5.739   6.523   9.969  0.00  0.00    -0.001 C 
ATOM      4  C   UNL d   1       6.547   5.235  10.314  0.00  0.00     0.023 C 
ATOM      5  C   UNL d   1       2.503   5.853  11.787  0.00  0.00     0.126 C 
ATOM      6  C   UNL d   1       4.793   4.691  12.138  0.00  0.00     0.013 C 
ATOM      7  C   UNL d   1       3.241   7.367   9.987  0.00  0.00     0.008 C 
ATOM      8  C   UNL d   1       6.288   4.786  11.778  0.00  0.00     0.010 C 
ATOM      9  C   UNL d   1       2.035   7.002  10.873  0.00  0.00     0.033 C 
ATOM     10  C   UNL d   1       5.967   6.874   8.498  0.00  0.00     0.010 C 
ATOM     11  C   UNL d   1       4.486   7.111  12.750  0.00  0.00     0.018 C 
ATOM     12  C   UNL d   1       8.018   5.387   9.934  0.00  0.00    -0.047 A 
ATOM     13  C   UNL d   1       7.430   7.246   8.275  0.00  0.00     0.039 C 
ATOM     14  C   UNL d   1       8.410   6.310   8.941  0.00  0.00    -0.049 A 
ATOM     15  C   UNL d   1       9.003   4.556  10.495  0.00  0.00     0.011 A 
ATOM     16  C   UNL d   1       9.764   6.415   8.576  0.00  0.00     0.044 A 
ATOM     17  C   UNL d   1      10.343   4.663  10.118  0.00  0.00     0.037 A 
ATOM     18  C   UNL d   1      10.725   5.595   9.162  0.00  0.00     0.066 A 
ENDROOT
BRANCH   5  19
ATOM     19  O   UNL d   1       1.939   5.948  13.080  0.00  0.00    -0.395 OA
ATOM     20  H   UNL d   1       2.322   5.234  13.619  0.00  0.00     0.210 HD
ENDBRANCH   5  19
BRANCH  18  21
ATOM     21  O   UNL d   1      12.030   5.704   8.795  0.00  0.00    -0.361 OA
ATOM     22  H   UNL d   1      12.147   6.525   8.286  0.00  0.00     0.217 HD
ENDBRANCH  18  21
TORSDOF 2
ENDMDL
MODEL 7
REMARK VINA RESULT:      -6.2      1.310      6.491
REMARK  2 active torsions:
REMARK  status: ('A' for Active; 'I' for Inactive)
REMARK    1  A    between atoms: O_1  and  C_7 
REMARK    2  A    between atoms: O_2  and  C_20 
ROOT
ATOM      1  C   UNL d   1       6.607   2.280  12.923  0.00  0.00    -0.014 C 
ATOM      2  C   UNL d   1       5.944   3.508  12.270  0.00  0.00     0.001 C 
ATOM      3  C   UNL d   1       6.961   4.409  11.569  0.00  0.00    -0.001 C 
ATOM      4  C   UNL d   1       7.649   3.593  10.433  0.00  0.00     0.023 C 
ATOM      5  C   UNL d   1       5.364   1.643  13.576  0.00  0.00     0.126 C 
ATOM      6  C   UNL d   1       7.255   1.441  11.815  0.00  0.00     0.013 C 
ATOM      7  C   UNL d   1       5.081   4.084  13.390  0.00  0.00     0.008 C 
ATOM      8  C   UNL d   1       8.249   2.268  10.977  0.00  0.00     0.010 C 
ATOM      9  C   UNL d   1       4.594   2.843  14.161  0.00  0.00     0.033 C 
ATOM     10  C   UNL d   1       6.320   5.660  10.966  0.00  0.00     0.010 C 
ATOM     11  C   UNL d   1       7.670   2.612  14.001  0.00  0.00     0.018 C 
ATOM     12  C   UNL d   1       8.619   4.464   9.638  0.00  0.00    -0.047 A 
ATOM     13  C   UNL d   1       7.404   6.580  10.411  0.00  0.00     0.039 C 
ATOM     14  C   UNL d   1       8.462   5.866   9.605  0.00  0.00    -0.049 A 
ATOM     15  C   UNL d   1       9.632   3.890   8.850  0.00  0.00     0.011 A 
ATOM     16  C   UNL d   1       9.342   6.653   8.840  0.00  0.00     0.044 A 
ATOM     17  C   UNL d   1      10.494   4.681   8.088  0.00  0.00     0.037 A 
ATOM     18  C   UNL d   1      10.353   6.063   8.086  0.00  0.00     0.066 A 
ENDROOT
BRANCH   5  19
ATOM     19  O   UNL d   1       5.687   0.691  14.570  0.00  0.00    -0.395 OA
ATOM     20  H   UNL d   1       4.854   0.413  14.989  0.00  0.00     0.210 HD
ENDBRANCH   5  19
BRANCH  18  21
ATOM     21  O   UNL d   1      11.192   6.836   7.347  0.00  0.00    -0.361 OA
ATOM     22  H   UNL d   1      11.334   6.411   6.483  0.00  0.00     0.217 HD
ENDBRANCH  18  21
TORSDOF 2
ENDMDL
MODEL 8
REMARK VINA RESULT:      -6.1      3.259      5.057
REMARK  2 active torsions:
REMARK  status: ('A' for Active; 'I' for Inactive)
REMARK    1  A    between atoms: O_1  and  C_7 
REMARK    2  A    between atoms: O_2  and  C_20 
ROOT
ATOM      1  C   UNL d   1       8.484   5.685   8.858  0.00  0.00    -0.014 C 
ATOM      2  C   UNL d   1       7.691   5.299  10.123  0.00  0.00     0.001 C 
ATOM      3  C   UNL d   1       6.445   6.164  10.309  0.00  0.00    -0.001 C 
ATOM      4  C   UNL d   1       5.502   5.949   9.087  0.00  0.00     0.023 C 
ATOM      5  C   UNL d   1       9.667   4.707   8.998  0.00  0.00     0.126 C 
ATOM      6  C   UNL d   1       7.585   5.440   7.639  0.00  0.00     0.013 C 
ATOM      7  C   UNL d   1       8.756   5.276  11.216  0.00  0.00     0.008 C 
ATOM      8  C   UNL d   1       6.250   6.201   7.749  0.00  0.00     0.010 C 
ATOM      9  C   UNL d   1      10.016   4.756  10.498  0.00  0.00     0.033 C 
ATOM     10  C   UNL d   1       5.682   5.826  11.592  0.00  0.00     0.010 C 
ATOM     11  C   UNL d   1       8.994   7.148   8.832  0.00  0.00     0.018 C 
ATOM     12  C   UNL d   1       4.196   6.724   9.253  0.00  0.00    -0.047 A 
ATOM     13  C   UNL d   1       4.537   6.816  11.789  0.00  0.00     0.039 C 
ATOM     14  C   UNL d   1       3.738   7.087  10.538  0.00  0.00    -0.049 A 
ATOM     15  C   UNL d   1       3.378   7.015   8.148  0.00  0.00     0.011 A 
ATOM     16  C   UNL d   1       2.515   7.769  10.678  0.00  0.00     0.044 A 
ATOM     17  C   UNL d   1       2.163   7.686   8.302  0.00  0.00     0.037 A 
ATOM     18  C   UNL d   1       1.733   8.068   9.566  0.00  0.00     0.066 A 
ENDROOT
BRANCH   5  19
ATOM     19  O   UNL d   1      10.773   5.058   8.190  0.00  0.00    -0.395 OA
ATOM     20  H   UNL d   1      10.533   5.864   7.699  0.00  0.00     0.210 HD
ENDBRANCH   5  19
BRANCH  18  21
ATOM     21  O   UNL d   1       0.552   8.723   9.719  0.00  0.00    -0.361 OA
ATOM     22  H   UNL d   1       0.387   8.859  10.668  0.00  0.00     0.217 HD
ENDBRANCH  18  21
TORSDOF 2
ENDMDL
MODEL 9
REMARK VINA RESULT:      -6.1      2.011      2.980
REMARK  2 active torsions:
REMARK  status: ('A' for Active; 'I' for Inactive)
REMARK    1  A    between atoms: O_1  and  C_7 
REMARK    2  A    between atoms: O_2  and  C_20 
ROOT
ATOM      1  C   UNL d   1       9.365   3.265   9.967  0.00  0.00    -0.014 C 
ATOM      2  C   UNL d   1       8.935   4.685  10.388  0.00  0.00     0.001 C 
ATOM      3  C   UNL d   1       7.513   4.715  10.948  0.00  0.00    -0.001 C 
ATOM      4  C   UNL d   1       7.458   3.816  12.220  0.00  0.00     0.023 C 
ATOM      5  C   UNL d   1      10.764   3.586   9.406  0.00  0.00     0.126 C 
ATOM      6  C   UNL d   1       9.358   2.375  11.216  0.00  0.00     0.013 C 
ATOM      7  C   UNL d   1       9.277   5.536   9.169  0.00  0.00     0.008 C 
ATOM      8  C   UNL d   1       7.989   2.388  11.922  0.00  0.00     0.010 C 
ATOM      9  C   UNL d   1      10.557   4.888   8.609  0.00  0.00     0.033 C 
ATOM     10  C   UNL d   1       7.056   6.127  11.316  0.00  0.00     0.010 C 
ATOM     11  C   UNL d   1       8.481   2.617   8.872  0.00  0.00     0.018 C 
ATOM     12  C   UNL d   1       6.081   3.870  12.877  0.00  0.00    -0.047 A 
ATOM     13  C   UNL d   1       5.587   6.105  11.730  0.00  0.00     0.039 C 
ATOM     14  C   UNL d   1       5.230   4.977  12.667  0.00  0.00    -0.049 A 
ATOM     15  C   UNL d   1       5.662   2.871  13.772  0.00  0.00     0.011 A 
ATOM     16  C   UNL d   1       3.978   5.030  13.307  0.00  0.00     0.044 A 
ATOM     17  C   UNL d   1       4.421   2.939  14.407  0.00  0.00     0.037 A 
ATOM     18  C   UNL d   1       3.576   4.016  14.172  0.00  0.00     0.066 A 
ENDROOT
BRANCH   5  19
ATOM     19  O   UNL d   1      11.285   2.551   8.595  0.00  0.00    -0.395 OA
ATOM     20  H   UNL d   1      10.892   1.715   8.900  0.00  0.00     0.210 HD
ENDBRANCH   5  19
BRANCH  18  21
ATOM     21  O   UNL d   1       2.365   4.084  14.786  0.00  0.00    -0.361 OA
ATOM     22  H   UNL d   1       2.026   4.994  14.716  0.00  0.00     0.217 HD
ENDBRANCH  18  21
TORSDOF 2
ENDMDL
