MODEL 1
REMARK VINA RESULT:      -5.2      0.000      0.000
REMARK  3 active torsions:
REMARK  status: ('A' for Active; 'I' for Inactive)
REMARK    1  A    between atoms: C_11  and  C_12 
REMARK    2  A    between atoms: C_11  and  C_13 
REMARK    3  A    between atoms: C_12  and  C_14 
ROOT
ATOM      1  C   UNL d   1       9.026   4.738  11.121  0.00  0.00     0.045 C 
ENDROOT
BRANCH   1   2
ATOM      2  C   UNL d   1       9.417   3.484  10.322  0.00  0.00     0.045 C 
BRANCH   2   3
ATOM      3  C   UNL d   1       9.020   3.554   8.867  0.00  0.00    -0.020 A 
ATOM      4  C   UNL d   1       9.716   4.392   8.002  0.00  0.00     0.037 A 
ATOM      5 BR   UNL d   1      11.167   5.427   8.713  0.00  0.00    -0.049 Br
ATOM      6  C   UNL d   1       9.350   4.458   6.659  0.00  0.00     0.047 A 
ATOM      7 BR   UNL d   1      10.315   5.622   5.470  0.00  0.00    -0.048 Br
ATOM      8  C   UNL d   1       8.287   3.687   6.187  0.00  0.00     0.048 A 
ATOM      9 BR   UNL d   1       7.780   3.778   4.332  0.00  0.00    -0.048 Br
ATOM     10  C   UNL d   1       7.592   2.849   7.060  0.00  0.00     0.047 A 
ATOM     11 BR   UNL d   1       6.127   1.776   6.425  0.00  0.00    -0.048 Br
ATOM     12  C   UNL d   1       7.960   2.783   8.404  0.00  0.00     0.037 A 
ATOM     13 BR   UNL d   1       7.044   1.652   9.653  0.00  0.00    -0.049 Br
ENDBRANCH   2   3
ENDBRANCH   1   2
BRANCH   1  14
ATOM     14  C   UNL d   1       7.586   4.758  11.548  0.00  0.00    -0.020 A 
ATOM     15  C   UNL d   1       6.685   5.618  10.921  0.00  0.00     0.037 A 
ATOM     16 BR   UNL d   1       7.346   6.750   9.522  0.00  0.00    -0.049 Br
ATOM     17  C   UNL d   1       5.348   5.638  11.319  0.00  0.00     0.047 A 
ATOM     18 BR   UNL d   1       4.119   6.835  10.448  0.00  0.00    -0.048 Br
ATOM     19  C   UNL d   1       4.912   4.798  12.343  0.00  0.00     0.048 A 
ATOM     20 BR   UNL d   1       3.067   4.825  12.892  0.00  0.00    -0.048 Br
ATOM     21  C   UNL d   1       5.814   3.937  12.971  0.00  0.00     0.047 A 
ATOM     22 BR   UNL d   1       5.229   2.768  14.382  0.00  0.00    -0.048 Br
ATOM     23  C   UNL d   1       7.151   3.917  12.572  0.00  0.00     0.037 A 
ATOM     24 BR   UNL d   1       8.439   2.758  13.394  0.00  0.00    -0.049 Br
ENDBRANCH   1  14
TORSDOF 3
ENDMDL
MODEL 2
REMARK VINA RESULT:      -5.2      0.041      2.534
REMARK  3 active torsions:
REMARK  status: ('A' for Active; 'I' for Inactive)
REMARK    1  A    between atoms: C_11  and  C_12 
REMARK    2  A    between atoms: C_11  and  C_13 
REMARK    3  A    between atoms: C_12  and  C_14 
ROOT
ATOM      1  C   UNL d   1       9.012   4.745  11.108  0.00  0.00     0.045 C 
ENDROOT
BRANCH   1   2
ATOM      2  C   UNL d   1       9.413   3.486  10.322  0.00  0.00     0.045 C 
BRANCH   2   3
ATOM      3  C   UNL d   1       9.021   3.539   8.866  0.00  0.00    -0.020 A 
ATOM      4  C   UNL d   1       7.971   2.752   8.405  0.00  0.00     0.037 A 
ATOM      5 BR   UNL d   1       7.061   1.626   9.664  0.00  0.00    -0.049 Br
ATOM      6  C   UNL d   1       7.609   2.799   7.060  0.00  0.00     0.047 A 
ATOM      7 BR   UNL d   1       6.158   1.704   6.431  0.00  0.00    -0.048 Br
ATOM      8  C   UNL d   1       8.300   3.633   6.180  0.00  0.00     0.048 A 
ATOM      9 BR   UNL d   1       7.801   3.698   4.323  0.00  0.00    -0.048 Br
ATOM     10  C   UNL d   1       9.353   4.420   6.649  0.00  0.00     0.047 A 
ATOM     11 BR   UNL d   1      10.315   5.578   5.450  0.00  0.00    -0.048 Br
ATOM     12  C   UNL d   1       9.714   4.372   7.995  0.00  0.00     0.037 A 
ATOM     13 BR   UNL d   1      11.153   5.428   8.698  0.00  0.00    -0.049 Br
ENDBRANCH   2   3
ENDBRANCH   1   2
BRANCH   1  14
ATOM     14  C   UNL d   1       7.572   4.759  11.534  0.00  0.00    -0.020 A 
ATOM     15  C   UNL d   1       6.664   5.604  10.897  0.00  0.00     0.037 A 
ATOM     16 BR   UNL d   1       7.317   6.726   9.485  0.00  0.00    -0.049 Br
ATOM     17  C   UNL d   1       5.327   5.619  11.294  0.00  0.00     0.047 A 
ATOM     18 BR   UNL d   1       4.089   6.795  10.409  0.00  0.00    -0.048 Br
ATOM     19  C   UNL d   1       4.897   4.787  12.328  0.00  0.00     0.048 A 
ATOM     20 BR   UNL d   1       3.052   4.806  12.876  0.00  0.00    -0.048 Br
ATOM     21  C   UNL d   1       5.805   3.940  12.965  0.00  0.00     0.047 A 
ATOM     22 BR   UNL d   1       5.230   2.783  14.390  0.00  0.00    -0.048 Br
ATOM     23  C   UNL d   1       7.143   3.927  12.567  0.00  0.00     0.037 A 
ATOM     24 BR   UNL d   1       8.440   2.788  13.404  0.00  0.00    -0.049 Br
ENDBRANCH   1  14
TORSDOF 3
ENDMDL
MODEL 3
REMARK VINA RESULT:      -5.2      0.049      3.584
REMARK  3 active torsions:
REMARK  status: ('A' for Active; 'I' for Inactive)
REMARK    1  A    between atoms: C_11  and  C_12 
REMARK    2  A    between atoms: C_11  and  C_13 
REMARK    3  A    between atoms: C_12  and  C_14 
ROOT
ATOM      1  C   UNL d   1       9.034   4.739  11.112  0.00  0.00     0.045 C 
ENDROOT
BRANCH   1   2
ATOM      2  C   UNL d   1       9.430   3.477  10.328  0.00  0.00     0.045 C 
BRANCH   2   3
ATOM      3  C   UNL d   1       9.036   3.528   8.873  0.00  0.00    -0.020 A 
ATOM      4  C   UNL d   1       7.989   2.736   8.413  0.00  0.00     0.037 A 
ATOM      5 BR   UNL d   1       7.086   1.605   9.673  0.00  0.00    -0.049 Br
ATOM      6  C   UNL d   1       7.625   2.782   7.068  0.00  0.00     0.047 A 
ATOM      7 BR   UNL d   1       6.179   1.679   6.441  0.00  0.00    -0.048 Br
ATOM      8  C   UNL d   1       8.311   3.618   6.188  0.00  0.00     0.048 A 
ATOM      9 BR   UNL d   1       7.809   3.682   4.331  0.00  0.00    -0.048 Br
ATOM     10  C   UNL d   1       9.361   4.411   6.655  0.00  0.00     0.047 A 
ATOM     11 BR   UNL d   1      10.315   5.574   5.455  0.00  0.00    -0.048 Br
ATOM     12  C   UNL d   1       9.724   4.364   8.000  0.00  0.00     0.037 A 
ATOM     13 BR   UNL d   1      11.158   5.427   8.702  0.00  0.00    -0.049 Br
ENDBRANCH   2   3
ENDBRANCH   1   2
BRANCH   1  14
ATOM     14  C   UNL d   1       7.594   4.762  11.533  0.00  0.00    -0.020 A 
ATOM     15  C   UNL d   1       7.154   3.927  12.560  0.00  0.00     0.037 A 
ATOM     16 BR   UNL d   1       8.440   2.774  13.394  0.00  0.00    -0.049 Br
ATOM     17  C   UNL d   1       5.815   3.946  12.951  0.00  0.00     0.047 A 
ATOM     18 BR   UNL d   1       5.225   2.784  14.366  0.00  0.00    -0.048 Br
ATOM     19  C   UNL d   1       4.915   4.801  12.315  0.00  0.00     0.048 A 
ATOM     20 BR   UNL d   1       3.067   4.828  12.854  0.00  0.00    -0.048 Br
ATOM     21  C   UNL d   1       5.354   5.636  11.287  0.00  0.00     0.047 A 
ATOM     22 BR   UNL d   1       4.128   6.824  10.400  0.00  0.00    -0.048 Br
ATOM     23  C   UNL d   1       6.694   5.616  10.897  0.00  0.00     0.037 A 
ATOM     24 BR   UNL d   1       7.359   6.739   9.491  0.00  0.00    -0.049 Br
ENDBRANCH   1  14
TORSDOF 3
ENDMDL
MODEL 4
REMARK VINA RESULT:      -5.1      0.099      6.299
REMARK  3 active torsions:
REMARK  status: ('A' for Active; 'I' for Inactive)
REMARK    1  A    between atoms: C_11  and  C_12 
REMARK    2  A    between atoms: C_11  and  C_13 
REMARK    3  A    between atoms: C_12  and  C_14 
ROOT
ATOM      1  C   UNL d   1       9.379   3.449  10.316  0.00  0.00     0.045 C 
ENDROOT
BRANCH   1   2
ATOM      2  C   UNL d   1       8.981   4.711  11.098  0.00  0.00     0.045 C 
BRANCH   2   3
ATOM      3  C   UNL d   1       7.533   4.719  11.524  0.00  0.00    -0.020 A 
ATOM      4  C   UNL d   1       6.633   5.569  10.890  0.00  0.00     0.037 A 
ATOM      5 BR   UNL d   1       7.289   6.701   9.486  0.00  0.00    -0.049 Br
ATOM      6  C   UNL d   1       5.296   5.579  11.283  0.00  0.00     0.047 A 
ATOM      7 BR   UNL d   1       4.059   6.761  10.404  0.00  0.00    -0.048 Br
ATOM      8  C   UNL d   1       4.864   4.739  12.309  0.00  0.00     0.048 A 
ATOM      9 BR   UNL d   1       3.018   4.751  12.853  0.00  0.00    -0.048 Br
ATOM     10  C   UNL d   1       5.772   3.888  12.942  0.00  0.00     0.047 A 
ATOM     11 BR   UNL d   1       5.194   2.720  14.357  0.00  0.00    -0.048 Br
ATOM     12  C   UNL d   1       7.110   3.879  12.548  0.00  0.00     0.037 A 
ATOM     13 BR   UNL d   1       8.406   2.735  13.378  0.00  0.00    -0.049 Br
ENDBRANCH   2   3
ENDBRANCH   1   2
BRANCH   1  14
ATOM     14  C   UNL d   1       8.987   3.487   8.867  0.00  0.00    -0.020 A 
ATOM     15  C   UNL d   1       7.936   2.692   8.409  0.00  0.00     0.037 A 
ATOM     16 BR   UNL d   1       7.033   1.573   9.678  0.00  0.00    -0.049 Br
ATOM     17  C   UNL d   1       7.573   2.726   7.062  0.00  0.00     0.047 A 
ATOM     18 BR   UNL d   1       6.125   1.619   6.445  0.00  0.00    -0.048 Br
ATOM     19  C   UNL d   1       8.259   3.554   6.174  0.00  0.00     0.048 A 
ATOM     20 BR   UNL d   1       7.757   3.601   4.316  0.00  0.00    -0.048 Br
ATOM     21  C   UNL d   1       9.310   4.349   6.633  0.00  0.00     0.047 A 
ATOM     22 BR   UNL d   1      10.266   5.500   5.424  0.00  0.00    -0.048 Br
ATOM     23  C   UNL d   1       9.673   4.315   7.980  0.00  0.00     0.037 A 
ATOM     24 BR   UNL d   1      11.109   5.382   8.672  0.00  0.00    -0.049 Br
ENDBRANCH   1  14
TORSDOF 3
ENDMDL
MODEL 5
REMARK VINA RESULT:      -5.1      0.021      2.534
REMARK  3 active torsions:
REMARK  status: ('A' for Active; 'I' for Inactive)
REMARK    1  A    between atoms: C_11  and  C_12 
REMARK    2  A    between atoms: C_11  and  C_13 
REMARK    3  A    between atoms: C_12  and  C_14 
ROOT
ATOM      1  C   UNL d   1       9.015   4.746  11.106  0.00  0.00     0.045 C 
ENDROOT
BRANCH   1   2
ATOM      2  C   UNL d   1       9.405   3.484  10.318  0.00  0.00     0.045 C 
BRANCH   2   3
ATOM      3  C   UNL d   1       9.015   3.544   8.862  0.00  0.00    -0.020 A 
ATOM      4  C   UNL d   1       9.711   4.380   7.995  0.00  0.00     0.037 A 
ATOM      5 BR   UNL d   1      11.152   5.427   8.707  0.00  0.00    -0.049 Br
ATOM      6  C   UNL d   1       9.350   4.437   6.650  0.00  0.00     0.047 A 
ATOM      7 BR   UNL d   1      10.315   5.600   5.459  0.00  0.00    -0.048 Br
ATOM      8  C   UNL d   1       8.294   3.658   6.177  0.00  0.00     0.048 A 
ATOM      9 BR   UNL d   1       7.795   3.736   4.319  0.00  0.00    -0.048 Br
ATOM     10  C   UNL d   1       7.599   2.821   7.052  0.00  0.00     0.047 A 
ATOM     11 BR   UNL d   1       6.142   1.737   6.416  0.00  0.00    -0.048 Br
ATOM     12  C   UNL d   1       7.961   2.765   8.397  0.00  0.00     0.037 A 
ATOM     13 BR   UNL d   1       7.045   1.637   9.649  0.00  0.00    -0.049 Br
ENDBRANCH   2   3
ENDBRANCH   1   2
BRANCH   1  14
ATOM     14  C   UNL d   1       7.578   4.768  11.540  0.00  0.00    -0.020 A 
ATOM     15  C   UNL d   1       7.148   3.927  12.567  0.00  0.00     0.037 A 
ATOM     16 BR   UNL d   1       8.440   2.768  13.382  0.00  0.00    -0.049 Br
ATOM     17  C   UNL d   1       5.812   3.945  12.970  0.00  0.00     0.047 A 
ATOM     18 BR   UNL d   1       5.234   2.775  14.383  0.00  0.00    -0.048 Br
ATOM     19  C   UNL d   1       4.907   4.804  12.347  0.00  0.00     0.048 A 
ATOM     20 BR   UNL d   1       3.064   4.830  12.903  0.00  0.00    -0.048 Br
ATOM     21  C   UNL d   1       5.338   5.645  11.320  0.00  0.00     0.047 A 
ATOM     22 BR   UNL d   1       4.104   6.839  10.452  0.00  0.00    -0.048 Br
ATOM     23  C   UNL d   1       6.673   5.627  10.918  0.00  0.00     0.037 A 
ATOM     24 BR   UNL d   1       7.327   6.757   9.512  0.00  0.00    -0.049 Br
ENDBRANCH   1  14
TORSDOF 3
ENDMDL
MODEL 6
REMARK VINA RESULT:      -5.1      0.091      6.287
REMARK  3 active torsions:
REMARK  status: ('A' for Active; 'I' for Inactive)
REMARK    1  A    between atoms: C_11  and  C_12 
REMARK    2  A    between atoms: C_11  and  C_13 
REMARK    3  A    between atoms: C_12  and  C_14 
ROOT
ATOM      1  C   UNL d   1       9.376   3.452  10.308  0.00  0.00     0.045 C 
ENDROOT
BRANCH   1   2
ATOM      2  C   UNL d   1       8.981   4.712  11.095  0.00  0.00     0.045 C 
BRANCH   2   3
ATOM      3  C   UNL d   1       7.533   4.721  11.521  0.00  0.00    -0.020 A 
ATOM      4  C   UNL d   1       7.110   3.880  12.545  0.00  0.00     0.037 A 
ATOM      5 BR   UNL d   1       8.409   2.736  13.374  0.00  0.00    -0.049 Br
ATOM      6  C   UNL d   1       5.773   3.887  12.938  0.00  0.00     0.047 A 
ATOM      7 BR   UNL d   1       5.196   2.716  14.351  0.00  0.00    -0.048 Br
ATOM      8  C   UNL d   1       4.864   4.735  12.305  0.00  0.00     0.048 A 
ATOM      9 BR   UNL d   1       3.017   4.744  12.848  0.00  0.00    -0.048 Br
ATOM     10  C   UNL d   1       5.294   5.576  11.278  0.00  0.00     0.047 A 
ATOM     11 BR   UNL d   1       4.054   6.755  10.397  0.00  0.00    -0.048 Br
ATOM     12  C   UNL d   1       6.632   5.569  10.886  0.00  0.00     0.037 A 
ATOM     13 BR   UNL d   1       7.285   6.701   9.482  0.00  0.00    -0.049 Br
ENDBRANCH   2   3
ENDBRANCH   1   2
BRANCH   1  14
ATOM     14  C   UNL d   1       8.982   3.496   8.860  0.00  0.00    -0.020 A 
ATOM     15  C   UNL d   1       9.673   4.322   7.974  0.00  0.00     0.037 A 
ATOM     16 BR   UNL d   1      11.115   5.379   8.667  0.00  0.00    -0.049 Br
ATOM     17  C   UNL d   1       9.305   4.365   6.628  0.00  0.00     0.047 A 
ATOM     18 BR   UNL d   1      10.264   5.516   5.421  0.00  0.00    -0.048 Br
ATOM     19  C   UNL d   1       8.248   3.580   6.169  0.00  0.00     0.048 A 
ATOM     20 BR   UNL d   1       7.741   3.638   4.312  0.00  0.00    -0.048 Br
ATOM     21  C   UNL d   1       7.557   2.753   7.055  0.00  0.00     0.047 A 
ATOM     22 BR   UNL d   1       6.099   1.661   6.438  0.00  0.00    -0.048 Br
ATOM     23  C   UNL d   1       7.925   2.711   8.400  0.00  0.00     0.037 A 
ATOM     24 BR   UNL d   1       7.015   1.596   9.668  0.00  0.00    -0.049 Br
ENDBRANCH   1  14
TORSDOF 3
ENDMDL
MODEL 7
REMARK VINA RESULT:      -5.1      0.108      6.055
REMARK  3 active torsions:
REMARK  status: ('A' for Active; 'I' for Inactive)
REMARK    1  A    between atoms: C_11  and  C_12 
REMARK    2  A    between atoms: C_11  and  C_13 
REMARK    3  A    between atoms: C_12  and  C_14 
ROOT
ATOM      1  C   UNL d   1       9.438   3.478  10.359  0.00  0.00     0.045 C 
ENDROOT
BRANCH   1   2
ATOM      2  C   UNL d   1       9.029   4.749  11.123  0.00  0.00     0.045 C 
BRANCH   2   3
ATOM      3  C   UNL d   1       7.578   4.758  11.536  0.00  0.00    -0.020 A 
ATOM      4  C   UNL d   1       6.681   5.599  10.886  0.00  0.00     0.037 A 
ATOM      5 BR   UNL d   1       7.345   6.719   9.477  0.00  0.00    -0.049 Br
ATOM      6  C   UNL d   1       5.341   5.609  11.268  0.00  0.00     0.047 A 
ATOM      7 BR   UNL d   1       4.108   6.779  10.367  0.00  0.00    -0.048 Br
ATOM      8  C   UNL d   1       4.902   4.778  12.299  0.00  0.00     0.048 A 
ATOM      9 BR   UNL d   1       3.052   4.792  12.827  0.00  0.00    -0.048 Br
ATOM     10  C   UNL d   1       5.807   3.936  12.948  0.00  0.00     0.047 A 
ATOM     11 BR   UNL d   1       5.220   2.781  14.370  0.00  0.00    -0.048 Br
ATOM     12  C   UNL d   1       7.148   3.927  12.565  0.00  0.00     0.037 A 
ATOM     13 BR   UNL d   1       8.440   2.794  13.418  0.00  0.00    -0.049 Br
ENDBRANCH   2   3
ENDBRANCH   1   2
BRANCH   1  14
ATOM     14  C   UNL d   1       9.054   3.495   8.908  0.00  0.00    -0.020 A 
ATOM     15  C   UNL d   1       9.731   4.328   8.018  0.00  0.00     0.037 A 
ATOM     16 BR   UNL d   1      11.142   5.427   8.709  0.00  0.00    -0.049 Br
ATOM     17  C   UNL d   1       9.373   4.346   6.669  0.00  0.00     0.047 A 
ATOM     18 BR   UNL d   1      10.314   5.506   5.456  0.00  0.00    -0.048 Br
ATOM     19  C   UNL d   1       8.339   3.531   6.211  0.00  0.00     0.048 A 
ATOM     20 BR   UNL d   1       7.845   3.555   4.350  0.00  0.00    -0.048 Br
ATOM     21  C   UNL d   1       7.661   2.697   7.102  0.00  0.00     0.047 A 
ATOM     22 BR   UNL d   1       6.234   1.563   6.486  0.00  0.00    -0.048 Br
ATOM     23  C   UNL d   1       8.020   2.680   8.450  0.00  0.00     0.037 A 
ATOM     24 BR   UNL d   1       7.127   1.558   9.724  0.00  0.00    -0.049 Br
ENDBRANCH   1  14
TORSDOF 3
ENDMDL
MODEL 8
REMARK VINA RESULT:      -5.1      9.074     11.605
REMARK  3 active torsions:
REMARK  status: ('A' for Active; 'I' for Inactive)
REMARK    1  A    between atoms: C_11  and  C_12 
REMARK    2  A    between atoms: C_11  and  C_13 
REMARK    3  A    between atoms: C_12  and  C_14 
ROOT
ATOM      1  C   UNL d   1      14.385  -1.283   4.343  0.00  0.00     0.045 C 
ENDROOT
BRANCH   1   2
ATOM      2  C   UNL d   1      14.881   0.170   4.415  0.00  0.00     0.045 C 
BRANCH   2   3
ATOM      3  C   UNL d   1      15.875   0.518   3.334  0.00  0.00    -0.020 A 
ATOM      4  C   UNL d   1      17.237   0.383   3.580  0.00  0.00     0.037 A 
ATOM      5 BR   UNL d   1      17.789  -0.249   5.306  0.00  0.00    -0.049 Br
ATOM      6  C   UNL d   1      18.155   0.705   2.583  0.00  0.00     0.047 A 
ATOM      7 BR   UNL d   1      20.038   0.519   2.934  0.00  0.00    -0.048 Br
ATOM      8  C   UNL d   1      17.708   1.162   1.343  0.00  0.00     0.048 A 
ATOM      9 BR   UNL d   1      18.976   1.607  -0.035  0.00  0.00    -0.048 Br
ATOM     10  C   UNL d   1      16.340   1.296   1.102  0.00  0.00     0.047 A 
ATOM     11 BR   UNL d   1      15.705   1.921  -0.603  0.00  0.00    -0.048 Br
ATOM     12  C   UNL d   1      15.422   0.973   2.101  0.00  0.00     0.037 A 
ATOM     13 BR   UNL d   1      13.530   1.137   1.832  0.00  0.00    -0.049 Br
ENDBRANCH   2   3
ENDBRANCH   1   2
BRANCH   1  14
ATOM     14  C   UNL d   1      14.393  -1.991   5.667  0.00  0.00    -0.020 A 
ATOM     15  C   UNL d   1      15.180  -3.128   5.845  0.00  0.00     0.037 A 
ATOM     16 BR   UNL d   1      16.228  -3.739   4.359  0.00  0.00    -0.049 Br
ATOM     17  C   UNL d   1      15.186  -3.788   7.074  0.00  0.00     0.047 A 
ATOM     18 BR   UNL d   1      16.272  -5.359   7.300  0.00  0.00    -0.048 Br
ATOM     19  C   UNL d   1      14.406  -3.309   8.127  0.00  0.00     0.048 A 
ATOM     20 BR   UNL d   1      14.415  -4.218   9.824  0.00  0.00    -0.048 Br
ATOM     21  C   UNL d   1      13.619  -2.170   7.949  0.00  0.00     0.047 A 
ATOM     22 BR   UNL d   1      12.540  -1.493   9.391  0.00  0.00    -0.048 Br
ATOM     23  C   UNL d   1      13.613  -1.512   6.719  0.00  0.00     0.037 A 
ATOM     24 BR   UNL d   1      12.552   0.057   6.412  0.00  0.00    -0.049 Br
ENDBRANCH   1  14
TORSDOF 3
ENDMDL
MODEL 9
REMARK VINA RESULT:      -5.1      9.072     11.502
REMARK  3 active torsions:
REMARK  status: ('A' for Active; 'I' for Inactive)
REMARK    1  A    between atoms: C_11  and  C_12 
REMARK    2  A    between atoms: C_11  and  C_13 
REMARK    3  A    between atoms: C_12  and  C_14 
ROOT
ATOM      1  C   UNL d   1      14.361  -1.237   4.422  0.00  0.00     0.045 C 
ENDROOT
BRANCH   1   2
ATOM      2  C   UNL d   1      14.930   0.188   4.516  0.00  0.00     0.045 C 
BRANCH   2   3
ATOM      3  C   UNL d   1      15.896   0.522   3.406  0.00  0.00    -0.020 A 
ATOM      4  C   UNL d   1      17.264   0.386   3.618  0.00  0.00     0.037 A 
ATOM      5 BR   UNL d   1      17.859  -0.228   5.335  0.00  0.00    -0.049 Br
ATOM      6  C   UNL d   1      18.156   0.696   2.593  0.00  0.00     0.047 A 
ATOM      7 BR   UNL d   1      20.047   0.510   2.897  0.00  0.00    -0.048 Br
ATOM      8  C   UNL d   1      17.678   1.140   1.361  0.00  0.00     0.048 A 
ATOM      9 BR   UNL d   1      18.910   1.568  -0.054  0.00  0.00    -0.048 Br
ATOM     10  C   UNL d   1      16.304   1.274   1.154  0.00  0.00     0.047 A 
ATOM     11 BR   UNL d   1      15.626   1.882  -0.541  0.00  0.00    -0.048 Br
ATOM     12  C   UNL d   1      15.411   0.965   2.180  0.00  0.00     0.037 A 
ATOM     13 BR   UNL d   1      13.513   1.129   1.958  0.00  0.00    -0.049 Br
ENDBRANCH   2   3
ENDBRANCH   1   2
BRANCH   1  14
ATOM     14  C   UNL d   1      14.384  -1.984   5.723  0.00  0.00    -0.020 A 
ATOM     15  C   UNL d   1      13.612  -1.540   6.796  0.00  0.00     0.037 A 
ATOM     16 BR   UNL d   1      12.542   0.032   6.545  0.00  0.00    -0.049 Br
ATOM     17  C   UNL d   1      13.635  -2.233   8.007  0.00  0.00     0.047 A 
ATOM     18 BR   UNL d   1      12.568  -1.602   9.479  0.00  0.00    -0.048 Br
ATOM     19  C   UNL d   1      14.429  -3.370   8.145  0.00  0.00     0.048 A 
ATOM     20 BR   UNL d   1      14.461  -4.327   9.816  0.00  0.00    -0.048 Br
ATOM     21  C   UNL d   1      15.202  -3.816   7.072  0.00  0.00     0.047 A 
ATOM     22 BR   UNL d   1      16.301  -5.385   7.242  0.00  0.00    -0.048 Br
ATOM     23  C   UNL d   1      15.179  -3.122   5.861  0.00  0.00     0.037 A 
ATOM     24 BR   UNL d   1      16.218  -3.682   4.349  0.00  0.00    -0.049 Br
ENDBRANCH   1  14
TORSDOF 3
ENDMDL
