MODEL 1
REMARK VINA RESULT:      -3.6      0.000      0.000
REMARK  12 active torsions:
REMARK  status: ('A' for Active; 'I' for Inactive)
REMARK    1  A    between atoms: P_4  and  O_5 
REMARK    2  A    between atoms: P_4  and  O_6 
REMARK    3  A    between atoms: P_4  and  O_7 
REMARK    4  A    between atoms: O_5  and  C_9 
REMARK    5  A    between atoms: O_6  and  C_10 
REMARK    6  A    between atoms: O_7  and  C_11 
REMARK    7  A    between atoms: C_9  and  C_12 
REMARK    8  A    between atoms: C_10  and  C_13 
REMARK    9  A    between atoms: C_11  and  C_14 
REMARK   10  A    between atoms: C_12  and  C_15 
REMARK   11  A    between atoms: C_13  and  C_16 
REMARK   12  A    between atoms: C_14  and  C_17 
ROOT
ATOM      1  P   UNL d   1      10.231   4.365   9.855  0.00  0.00     0.477 P 
ATOM      2  O   UNL d   1      11.622   4.852   9.560  0.00  0.00    -0.227 OA
ENDROOT
BRANCH   1   3
ATOM      3  O   UNL d   1       9.443   5.232  10.975  0.00  0.00    -0.292 OA
BRANCH   3   4
ATOM      4  C   UNL d   1       8.298   5.988  10.614  0.00  0.00     0.181 C 
BRANCH   4   5
ATOM      5  C   UNL d   1       7.106   5.479  11.415  0.00  0.00     0.042 C 
BRANCH   5   6
ATOM      6  C   UNL d   1       5.779   6.089  10.986  0.00  0.00     0.116 C 
ATOM      7 CL   UNL d   1       4.814   6.635  12.377  0.00  0.00    -0.130 Cl
ENDBRANCH   5   6
ENDBRANCH   4   5
ENDBRANCH   3   4
ENDBRANCH   1   3
BRANCH   1   8
ATOM      8  O   UNL d   1      10.149   2.839  10.392  0.00  0.00    -0.292 OA
BRANCH   8   9
ATOM      9  C   UNL d   1       8.965   2.100  10.148  0.00  0.00     0.181 C 
BRANCH   9  10
ATOM     10  C   UNL d   1       8.670   1.233  11.366  0.00  0.00     0.042 C 
BRANCH  10  11
ATOM     11  C   UNL d   1       7.733   1.891  12.371  0.00  0.00     0.116 C 
ATOM     12 CL   UNL d   1       8.620   2.624  13.727  0.00  0.00    -0.130 Cl
ENDBRANCH  10  11
ENDBRANCH   9  10
ENDBRANCH   8   9
ENDBRANCH   1   8
BRANCH   1  13
ATOM     13  O   UNL d   1       9.235   4.354   8.577  0.00  0.00    -0.292 OA
BRANCH  13  14
ATOM     14  C   UNL d   1       9.741   4.781   7.323  0.00  0.00     0.181 C 
BRANCH  14  15
ATOM     15  C   UNL d   1       8.659   5.579   6.606  0.00  0.00     0.042 C 
BRANCH  15  16
ATOM     16  C   UNL d   1       8.589   7.038   7.039  0.00  0.00     0.116 C 
ATOM     17 CL   UNL d   1       6.989   7.463   7.689  0.00  0.00    -0.130 Cl
ENDBRANCH  15  16
ENDBRANCH  14  15
ENDBRANCH  13  14
ENDBRANCH   1  13
TORSDOF 12
ENDMDL
MODEL 2
REMARK VINA RESULT:      -3.5      3.394      5.980
REMARK  12 active torsions:
REMARK  status: ('A' for Active; 'I' for Inactive)
REMARK    1  A    between atoms: P_4  and  O_5 
REMARK    2  A    between atoms: P_4  and  O_6 
REMARK    3  A    between atoms: P_4  and  O_7 
REMARK    4  A    between atoms: O_5  and  C_9 
REMARK    5  A    between atoms: O_6  and  C_10 
REMARK    6  A    between atoms: O_7  and  C_11 
REMARK    7  A    between atoms: C_9  and  C_12 
REMARK    8  A    between atoms: C_10  and  C_13 
REMARK    9  A    between atoms: C_11  and  C_14 
REMARK   10  A    between atoms: C_12  and  C_15 
REMARK   11  A    between atoms: C_13  and  C_16 
REMARK   12  A    between atoms: C_14  and  C_17 
ROOT
ATOM      1  P   UNL d   1       9.391   6.960   6.852  0.00  0.00     0.477 P 
ATOM      2  O   UNL d   1       9.899   7.797   5.713  0.00  0.00    -0.227 OA
ENDROOT
BRANCH   1   3
ATOM      3  O   UNL d   1       9.030   5.432   6.450  0.00  0.00    -0.292 OA
BRANCH   3   4
ATOM      4  C   UNL d   1       8.994   5.045   5.086  0.00  0.00     0.181 C 
BRANCH   4   5
ATOM      5  C   UNL d   1      10.333   4.414   4.722  0.00  0.00     0.042 C 
BRANCH   5   6
ATOM      6  C   UNL d   1      10.786   4.726   3.302  0.00  0.00     0.116 C 
ATOM      7 CL   UNL d   1      12.489   4.287   3.034  0.00  0.00    -0.130 Cl
ENDBRANCH   5   6
ENDBRANCH   4   5
ENDBRANCH   3   4
ENDBRANCH   1   3
BRANCH   1   8
ATOM      8  O   UNL d   1       8.044   7.522   7.555  0.00  0.00    -0.292 OA
BRANCH   8   9
ATOM      9  C   UNL d   1       7.943   7.458   8.967  0.00  0.00     0.181 C 
BRANCH   9  10
ATOM     10  C   UNL d   1       6.732   6.608   9.333  0.00  0.00     0.042 C 
BRANCH  10  11
ATOM     11  C   UNL d   1       7.093   5.273   9.971  0.00  0.00     0.116 C 
ATOM     12 CL   UNL d   1       7.749   5.475  11.612  0.00  0.00    -0.130 Cl
ENDBRANCH  10  11
ENDBRANCH   9  10
ENDBRANCH   8   9
ENDBRANCH   1   8
BRANCH   1  13
ATOM     13  O   UNL d   1      10.418   6.819   8.097  0.00  0.00    -0.292 OA
BRANCH  13  14
ATOM     14  C   UNL d   1      11.173   5.625   8.217  0.00  0.00     0.181 C 
BRANCH  14  15
ATOM     15  C   UNL d   1      10.754   4.909   9.494  0.00  0.00     0.042 C 
BRANCH  15  16
ATOM     16  C   UNL d   1      10.460   3.428   9.295  0.00  0.00     0.116 C 
ATOM     17 CL   UNL d   1       9.676   2.707  10.719  0.00  0.00    -0.130 Cl
ENDBRANCH  15  16
ENDBRANCH  14  15
ENDBRANCH  13  14
ENDBRANCH   1  13
TORSDOF 12
ENDMDL
MODEL 3
REMARK VINA RESULT:      -3.5      3.048      6.107
REMARK  12 active torsions:
REMARK  status: ('A' for Active; 'I' for Inactive)
REMARK    1  A    between atoms: P_4  and  O_5 
REMARK    2  A    between atoms: P_4  and  O_6 
REMARK    3  A    between atoms: P_4  and  O_7 
REMARK    4  A    between atoms: O_5  and  C_9 
REMARK    5  A    between atoms: O_6  and  C_10 
REMARK    6  A    between atoms: O_7  and  C_11 
REMARK    7  A    between atoms: C_9  and  C_12 
REMARK    8  A    between atoms: C_10  and  C_13 
REMARK    9  A    between atoms: C_11  and  C_14 
REMARK   10  A    between atoms: C_12  and  C_15 
REMARK   11  A    between atoms: C_13  and  C_16 
REMARK   12  A    between atoms: C_14  and  C_17 
ROOT
ATOM      1  P   UNL d   1       9.214   6.838   7.447  0.00  0.00     0.477 P 
ATOM      2  O   UNL d   1      10.683   7.041   7.690  0.00  0.00    -0.227 OA
ENDROOT
BRANCH   1   3
ATOM      3  O   UNL d   1       8.758   5.285   7.370  0.00  0.00    -0.292 OA
BRANCH   3   4
ATOM      4  C   UNL d   1       9.727   4.253   7.460  0.00  0.00     0.181 C 
BRANCH   4   5
ATOM      5  C   UNL d   1       9.321   3.298   8.576  0.00  0.00     0.042 C 
BRANCH   5   6
ATOM      6  C   UNL d   1      10.378   3.144   9.661  0.00  0.00     0.116 C 
ATOM      7 CL   UNL d   1      11.370   4.609   9.838  0.00  0.00    -0.130 Cl
ENDBRANCH   5   6
ENDBRANCH   4   5
ENDBRANCH   3   4
ENDBRANCH   1   3
BRANCH   1   8
ATOM      8  O   UNL d   1       8.661   7.491   6.071  0.00  0.00    -0.292 OA
BRANCH   8   9
ATOM      9  C   UNL d   1       9.457   7.379   4.904  0.00  0.00     0.181 C 
BRANCH   9  10
ATOM     10  C   UNL d   1       8.903   6.250   4.041  0.00  0.00     0.042 C 
BRANCH  10  11
ATOM     11  C   UNL d   1       9.959   5.564   3.183  0.00  0.00     0.116 C 
ATOM     12 CL   UNL d   1      10.551   4.063   3.931  0.00  0.00    -0.130 Cl
ENDBRANCH  10  11
ENDBRANCH   9  10
ENDBRANCH   8   9
ENDBRANCH   1   8
BRANCH   1  13
ATOM     13  O   UNL d   1       8.247   7.489   8.572  0.00  0.00    -0.292 OA
BRANCH  13  14
ATOM     14  C   UNL d   1       7.368   6.634   9.282  0.00  0.00     0.181 C 
BRANCH  14  15
ATOM     15  C   UNL d   1       8.034   6.225  10.589  0.00  0.00     0.042 C 
BRANCH  15  16
ATOM     16  C   UNL d   1       7.205   5.254  11.419  0.00  0.00     0.116 C 
ATOM     17 CL   UNL d   1       8.225   4.140  12.358  0.00  0.00    -0.130 Cl
ENDBRANCH  15  16
ENDBRANCH  14  15
ENDBRANCH  13  14
ENDBRANCH   1  13
TORSDOF 12
ENDMDL
MODEL 4
REMARK VINA RESULT:      -3.5      2.486      5.657
REMARK  12 active torsions:
REMARK  status: ('A' for Active; 'I' for Inactive)
REMARK    1  A    between atoms: P_4  and  O_5 
REMARK    2  A    between atoms: P_4  and  O_6 
REMARK    3  A    between atoms: P_4  and  O_7 
REMARK    4  A    between atoms: O_5  and  C_9 
REMARK    5  A    between atoms: O_6  and  C_10 
REMARK    6  A    between atoms: O_7  and  C_11 
REMARK    7  A    between atoms: C_9  and  C_12 
REMARK    8  A    between atoms: C_10  and  C_13 
REMARK    9  A    between atoms: C_11  and  C_14 
REMARK   10  A    between atoms: C_12  and  C_15 
REMARK   11  A    between atoms: C_13  and  C_16 
REMARK   12  A    between atoms: C_14  and  C_17 
ROOT
ATOM      1  P   UNL d   1       7.979   3.619  12.299  0.00  0.00     0.477 P 
ATOM      2  O   UNL d   1       8.505   3.106  13.610  0.00  0.00    -0.227 OA
ENDROOT
BRANCH   1   3
ATOM      3  O   UNL d   1       8.271   2.645  11.036  0.00  0.00    -0.292 OA
BRANCH   3   4
ATOM      4  C   UNL d   1       9.569   2.585  10.469  0.00  0.00     0.181 C 
BRANCH   4   5
ATOM      5  C   UNL d   1       9.458   2.828   8.969  0.00  0.00     0.042 C 
BRANCH   5   6
ATOM      6  C   UNL d   1      10.457   3.850   8.442  0.00  0.00     0.116 C 
ATOM      7 CL   UNL d   1      11.361   4.637   9.755  0.00  0.00    -0.130 Cl
ENDBRANCH   5   6
ENDBRANCH   4   5
ENDBRANCH   3   4
ENDBRANCH   1   3
BRANCH   1   8
ATOM      8  O   UNL d   1       8.576   5.056  11.848  0.00  0.00    -0.292 OA
BRANCH   8   9
ATOM      9  C   UNL d   1       7.687   6.012  11.296  0.00  0.00     0.181 C 
BRANCH   9  10
ATOM     10  C   UNL d   1       8.271   6.520   9.983  0.00  0.00     0.042 C 
BRANCH  10  11
ATOM     11  C   UNL d   1       7.490   6.072   8.754  0.00  0.00     0.116 C 
ATOM     12 CL   UNL d   1       7.111   7.433   7.673  0.00  0.00    -0.130 Cl
ENDBRANCH  10  11
ENDBRANCH   9  10
ENDBRANCH   8   9
ENDBRANCH   1   8
BRANCH   1  13
ATOM     13  O   UNL d   1       6.378   3.862  12.262  0.00  0.00    -0.292 OA
BRANCH  13  14
ATOM     14  C   UNL d   1       5.611   3.481  13.392  0.00  0.00     0.181 C 
BRANCH  14  15
ATOM     15  C   UNL d   1       4.462   4.467  13.557  0.00  0.00     0.042 C 
BRANCH  15  16
ATOM     16  C   UNL d   1       4.169   5.279  12.303  0.00  0.00     0.116 C 
ATOM     17 CL   UNL d   1       4.385   7.023  12.573  0.00  0.00    -0.130 Cl
ENDBRANCH  15  16
ENDBRANCH  14  15
ENDBRANCH  13  14
ENDBRANCH   1  13
TORSDOF 12
ENDMDL
MODEL 5
REMARK VINA RESULT:      -3.5      2.097      4.228
REMARK  12 active torsions:
REMARK  status: ('A' for Active; 'I' for Inactive)
REMARK    1  A    between atoms: P_4  and  O_5 
REMARK    2  A    between atoms: P_4  and  O_6 
REMARK    3  A    between atoms: P_4  and  O_7 
REMARK    4  A    between atoms: O_5  and  C_9 
REMARK    5  A    between atoms: O_6  and  C_10 
REMARK    6  A    between atoms: O_7  and  C_11 
REMARK    7  A    between atoms: C_9  and  C_12 
REMARK    8  A    between atoms: C_10  and  C_13 
REMARK    9  A    between atoms: C_11  and  C_14 
REMARK   10  A    between atoms: C_12  and  C_15 
REMARK   11  A    between atoms: C_13  and  C_16 
REMARK   12  A    between atoms: C_14  and  C_17 
ROOT
ATOM      1  P   UNL d   1       8.068   4.787  11.053  0.00  0.00     0.477 P 
ATOM      2  O   UNL d   1       7.492   3.801  10.077  0.00  0.00    -0.227 OA
ENDROOT
BRANCH   1   3
ATOM      3  O   UNL d   1       8.284   4.200  12.548  0.00  0.00    -0.292 OA
BRANCH   3   4
ATOM      4  C   UNL d   1       8.439   2.804  12.749  0.00  0.00     0.181 C 
BRANCH   4   5
ATOM      5  C   UNL d   1       7.605   2.389  13.956  0.00  0.00     0.042 C 
BRANCH   5   6
ATOM      6  C   UNL d   1       6.153   2.837  13.876  0.00  0.00     0.116 C 
ATOM      7 CL   UNL d   1       5.336   2.197  12.431  0.00  0.00    -0.130 Cl
ENDBRANCH   5   6
ENDBRANCH   4   5
ENDBRANCH   3   4
ENDBRANCH   1   3
BRANCH   1   8
ATOM      8  O   UNL d   1       7.178   6.123  11.268  0.00  0.00    -0.292 OA
BRANCH   8   9
ATOM      9  C   UNL d   1       5.823   6.105  10.853  0.00  0.00     0.181 C 
BRANCH   9  10
ATOM     10  C   UNL d   1       4.943   5.843  12.070  0.00  0.00     0.042 C 
BRANCH  10  11
ATOM     11  C   UNL d   1       4.150   7.062  12.524  0.00  0.00     0.116 C 
ATOM     12 CL   UNL d   1       3.140   7.724  11.217  0.00  0.00    -0.130 Cl
ENDBRANCH  10  11
ENDBRANCH   9  10
ENDBRANCH   8   9
ENDBRANCH   1   8
BRANCH   1  13
ATOM     13  O   UNL d   1       9.518   5.379  10.638  0.00  0.00    -0.292 OA
BRANCH  13  14
ATOM     14  C   UNL d   1      10.262   4.704   9.639  0.00  0.00     0.181 C 
BRANCH  14  15
ATOM     15  C   UNL d   1       9.909   5.297   8.281  0.00  0.00     0.042 C 
BRANCH  15  16
ATOM     16  C   UNL d   1       9.786   6.815   8.291  0.00  0.00     0.116 C 
ATOM     17 CL   UNL d   1       8.092   7.347   8.187  0.00  0.00    -0.130 Cl
ENDBRANCH  15  16
ENDBRANCH  14  15
ENDBRANCH  13  14
ENDBRANCH   1  13
TORSDOF 12
ENDMDL
MODEL 6
REMARK VINA RESULT:      -3.5      2.795      4.475
REMARK  12 active torsions:
REMARK  status: ('A' for Active; 'I' for Inactive)
REMARK    1  A    between atoms: P_4  and  O_5 
REMARK    2  A    between atoms: P_4  and  O_6 
REMARK    3  A    between atoms: P_4  and  O_7 
REMARK    4  A    between atoms: O_5  and  C_9 
REMARK    5  A    between atoms: O_6  and  C_10 
REMARK    6  A    between atoms: O_7  and  C_11 
REMARK    7  A    between atoms: C_9  and  C_12 
REMARK    8  A    between atoms: C_10  and  C_13 
REMARK    9  A    between atoms: C_11  and  C_14 
REMARK   10  A    between atoms: C_12  and  C_15 
REMARK   11  A    between atoms: C_13  and  C_16 
REMARK   12  A    between atoms: C_14  and  C_17 
ROOT
ATOM      1  P   UNL d   1       7.951   2.773  12.711  0.00  0.00     0.477 P 
ATOM      2  O   UNL d   1       8.708   2.029  13.774  0.00  0.00    -0.227 OA
ENDROOT
BRANCH   1   3
ATOM      3  O   UNL d   1       8.236   4.369  12.680  0.00  0.00    -0.292 OA
BRANCH   3   4
ATOM      4  C   UNL d   1       8.689   4.988  11.487  0.00  0.00     0.181 C 
BRANCH   4   5
ATOM      5  C   UNL d   1       7.592   5.909  10.968  0.00  0.00     0.042 C 
BRANCH   5   6
ATOM      6  C   UNL d   1       7.595   6.069   9.454  0.00  0.00     0.116 C 
ATOM      7 CL   UNL d   1       8.787   7.273   8.913  0.00  0.00    -0.130 Cl
ENDBRANCH   5   6
ENDBRANCH   4   5
ENDBRANCH   3   4
ENDBRANCH   1   3
BRANCH   1   8
ATOM      8  O   UNL d   1       6.339   2.653  12.820  0.00  0.00    -0.292 OA
BRANCH   8   9
ATOM      9  C   UNL d   1       5.607   3.781  13.267  0.00  0.00     0.181 C 
BRANCH   9  10
ATOM     10  C   UNL d   1       4.547   4.119  12.226  0.00  0.00     0.042 C 
BRANCH  10  11
ATOM     11  C   UNL d   1       3.637   5.271  12.633  0.00  0.00     0.116 C 
ATOM     12 CL   UNL d   1       4.506   6.823  12.676  0.00  0.00    -0.130 Cl
ENDBRANCH  10  11
ENDBRANCH   9  10
ENDBRANCH   8   9
ENDBRANCH   1   8
BRANCH   1  13
ATOM     13  O   UNL d   1       8.250   2.279  11.197  0.00  0.00    -0.292 OA
BRANCH  13  14
ATOM     14  C   UNL d   1       9.231   1.276  10.996  0.00  0.00     0.181 C 
BRANCH  14  15
ATOM     15  C   UNL d   1      10.176   1.731   9.891  0.00  0.00     0.042 C 
BRANCH  15  16
ATOM     16  C   UNL d   1       9.493   2.551   8.804  0.00  0.00     0.116 C 
ATOM     17 CL   UNL d   1      10.441   3.989   8.360  0.00  0.00    -0.130 Cl
ENDBRANCH  15  16
ENDBRANCH  14  15
ENDBRANCH  13  14
ENDBRANCH   1  13
TORSDOF 12
ENDMDL
MODEL 7
REMARK VINA RESULT:      -3.5     10.352     12.439
REMARK  12 active torsions:
REMARK  status: ('A' for Active; 'I' for Inactive)
REMARK    1  A    between atoms: P_4  and  O_5 
REMARK    2  A    between atoms: P_4  and  O_6 
REMARK    3  A    between atoms: P_4  and  O_7 
REMARK    4  A    between atoms: O_5  and  C_9 
REMARK    5  A    between atoms: O_6  and  C_10 
REMARK    6  A    between atoms: O_7  and  C_11 
REMARK    7  A    between atoms: C_9  and  C_12 
REMARK    8  A    between atoms: C_10  and  C_13 
REMARK    9  A    between atoms: C_11  and  C_14 
REMARK   10  A    between atoms: C_12  and  C_15 
REMARK   11  A    between atoms: C_13  and  C_16 
REMARK   12  A    between atoms: C_14  and  C_17 
ROOT
ATOM      1  P   UNL d   1      18.013   0.238   4.283  0.00  0.00     0.477 P 
ATOM      2  O   UNL d   1      18.116   0.097   5.775  0.00  0.00    -0.227 OA
ENDROOT
BRANCH   1   3
ATOM      3  O   UNL d   1      17.880  -1.167   3.486  0.00  0.00    -0.292 OA
BRANCH   3   4
ATOM      4  C   UNL d   1      17.746  -2.383   4.205  0.00  0.00     0.181 C 
BRANCH   4   5
ATOM      5  C   UNL d   1      16.263  -2.661   4.420  0.00  0.00     0.042 C 
BRANCH   5   6
ATOM      6  C   UNL d   1      15.851  -2.668   5.886  0.00  0.00     0.116 C 
ATOM      7 CL   UNL d   1      15.029  -1.162   6.354  0.00  0.00    -0.130 Cl
ENDBRANCH   5   6
ENDBRANCH   4   5
ENDBRANCH   3   4
ENDBRANCH   1   3
BRANCH   1   8
ATOM      8  O   UNL d   1      19.273   0.980   3.586  0.00  0.00    -0.292 OA
BRANCH   8   9
ATOM      9  C   UNL d   1      19.966   0.305   2.550  0.00  0.00     0.181 C 
BRANCH   9  10
ATOM     10  C   UNL d   1      19.733   1.049   1.240  0.00  0.00     0.042 C 
BRANCH  10  11
ATOM     11  C   UNL d   1      19.606   2.558   1.409  0.00  0.00     0.116 C 
ATOM     12 CL   UNL d   1      17.941   3.120   1.138  0.00  0.00    -0.130 Cl
ENDBRANCH  10  11
ENDBRANCH   9  10
ENDBRANCH   8   9
ENDBRANCH   1   8
BRANCH   1  13
ATOM     13  O   UNL d   1      16.749   1.114   3.773  0.00  0.00    -0.292 OA
BRANCH  13  14
ATOM     14  C   UNL d   1      15.967   0.611   2.703  0.00  0.00     0.181 C 
BRANCH  14  15
ATOM     15  C   UNL d   1      14.514   0.536   3.152  0.00  0.00     0.042 C 
BRANCH  15  16
ATOM     16  C   UNL d   1      13.758   1.849   2.994  0.00  0.00     0.116 C 
ATOM     17 CL   UNL d   1      14.351   2.797   1.612  0.00  0.00    -0.130 Cl
ENDBRANCH  15  16
ENDBRANCH  14  15
ENDBRANCH  13  14
ENDBRANCH   1  13
TORSDOF 12
ENDMDL
MODEL 8
REMARK VINA RESULT:      -3.4      2.609      5.535
REMARK  12 active torsions:
REMARK  status: ('A' for Active; 'I' for Inactive)
REMARK    1  A    between atoms: P_4  and  O_5 
REMARK    2  A    between atoms: P_4  and  O_6 
REMARK    3  A    between atoms: P_4  and  O_7 
REMARK    4  A    between atoms: O_5  and  C_9 
REMARK    5  A    between atoms: O_6  and  C_10 
REMARK    6  A    between atoms: O_7  and  C_11 
REMARK    7  A    between atoms: C_9  and  C_12 
REMARK    8  A    between atoms: C_10  and  C_13 
REMARK    9  A    between atoms: C_11  and  C_14 
REMARK   10  A    between atoms: C_12  and  C_15 
REMARK   11  A    between atoms: C_13  and  C_16 
REMARK   12  A    between atoms: C_14  and  C_17 
ROOT
ATOM      1  P   UNL d   1       6.967   6.027  10.005  0.00  0.00     0.477 P 
ATOM      2  O   UNL d   1       6.921   4.765   9.191  0.00  0.00    -0.227 OA
ENDROOT
BRANCH   1   3
ATOM      3  O   UNL d   1       5.525   6.515  10.563  0.00  0.00    -0.292 OA
BRANCH   3   4
ATOM      4  C   UNL d   1       5.196   6.339  11.931  0.00  0.00     0.181 C 
BRANCH   4   5
ATOM      5  C   UNL d   1       3.948   7.156  12.242  0.00  0.00     0.042 C 
BRANCH   5   6
ATOM      6  C   UNL d   1       3.157   7.554  11.003  0.00  0.00     0.116 C 
ATOM      7 CL   UNL d   1       1.423   7.196  11.176  0.00  0.00    -0.130 Cl
ENDBRANCH   5   6
ENDBRANCH   4   5
ENDBRANCH   3   4
ENDBRANCH   1   3
BRANCH   1   8
ATOM      8  O   UNL d   1       7.554   7.317   9.219  0.00  0.00    -0.292 OA
BRANCH   8   9
ATOM      9  C   UNL d   1       8.147   7.120   7.948  0.00  0.00     0.181 C 
BRANCH   9  10
ATOM     10  C   UNL d   1       9.632   6.834   8.140  0.00  0.00     0.042 C 
BRANCH  10  11
ATOM     11  C   UNL d   1      10.473   7.116   6.902  0.00  0.00     0.116 C 
ATOM     12 CL   UNL d   1       9.467   7.454   5.475  0.00  0.00    -0.130 Cl
ENDBRANCH  10  11
ENDBRANCH   9  10
ENDBRANCH   8   9
ENDBRANCH   1   8
BRANCH   1  13
ATOM     13  O   UNL d   1       7.905   5.947  11.323  0.00  0.00    -0.292 OA
BRANCH  13  14
ATOM     14  C   UNL d   1       8.751   4.820  11.482  0.00  0.00     0.181 C 
BRANCH  14  15
ATOM     15  C   UNL d   1       8.087   3.843  12.444  0.00  0.00     0.042 C 
BRANCH  15  16
ATOM     16  C   UNL d   1       8.684   2.443  12.401  0.00  0.00     0.116 C 
ATOM     17 CL   UNL d   1       9.489   2.110  10.850  0.00  0.00    -0.130 Cl
ENDBRANCH  15  16
ENDBRANCH  14  15
ENDBRANCH  13  14
ENDBRANCH   1  13
TORSDOF 12
ENDMDL
MODEL 9
REMARK VINA RESULT:      -3.4      2.354      5.225
REMARK  12 active torsions:
REMARK  status: ('A' for Active; 'I' for Inactive)
REMARK    1  A    between atoms: P_4  and  O_5 
REMARK    2  A    between atoms: P_4  and  O_6 
REMARK    3  A    between atoms: P_4  and  O_7 
REMARK    4  A    between atoms: O_5  and  C_9 
REMARK    5  A    between atoms: O_6  and  C_10 
REMARK    6  A    between atoms: O_7  and  C_11 
REMARK    7  A    between atoms: C_9  and  C_12 
REMARK    8  A    between atoms: C_10  and  C_13 
REMARK    9  A    between atoms: C_11  and  C_14 
REMARK   10  A    between atoms: C_12  and  C_15 
REMARK   11  A    between atoms: C_13  and  C_16 
REMARK   12  A    between atoms: C_14  and  C_17 
ROOT
ATOM      1  P   UNL d   1       7.382   5.412  10.750  0.00  0.00     0.477 P 
ATOM      2  O   UNL d   1       6.742   4.640   9.631  0.00  0.00    -0.227 OA
ENDROOT
BRANCH   1   3
ATOM      3  O   UNL d   1       6.331   6.089  11.782  0.00  0.00    -0.292 OA
BRANCH   3   4
ATOM      4  C   UNL d   1       4.944   6.087  11.488  0.00  0.00     0.181 C 
BRANCH   4   5
ATOM      5  C   UNL d   1       4.242   7.052  12.436  0.00  0.00     0.042 C 
BRANCH   5   6
ATOM      6  C   UNL d   1       3.374   6.360  13.477  0.00  0.00     0.116 C 
ATOM      7 CL   UNL d   1       4.104   4.844  14.053  0.00  0.00    -0.130 Cl
ENDBRANCH   5   6
ENDBRANCH   4   5
ENDBRANCH   3   4
ENDBRANCH   1   3
BRANCH   1   8
ATOM      8  O   UNL d   1       8.326   6.638  10.272  0.00  0.00    -0.292 OA
BRANCH   8   9
ATOM      9  C   UNL d   1       8.192   7.115   8.944  0.00  0.00     0.181 C 
BRANCH   9  10
ATOM     10  C   UNL d   1       9.531   6.963   8.232  0.00  0.00     0.042 C 
BRANCH  10  11
ATOM     11  C   UNL d   1       9.520   5.915   7.127  0.00  0.00     0.116 C 
ATOM     12 CL   UNL d   1       9.671   4.265   7.774  0.00  0.00    -0.130 Cl
ENDBRANCH  10  11
ENDBRANCH   9  10
ENDBRANCH   8   9
ENDBRANCH   1   8
BRANCH   1  13
ATOM     13  O   UNL d   1       8.369   4.539  11.692  0.00  0.00    -0.292 OA
BRANCH  13  14
ATOM     14  C   UNL d   1       8.843   3.296  11.205  0.00  0.00     0.181 C 
BRANCH  14  15
ATOM     15  C   UNL d   1       8.633   2.237  12.280  0.00  0.00     0.042 C 
BRANCH  15  16
ATOM     16  C   UNL d   1       8.372   2.816  13.664  0.00  0.00     0.116 C 
ATOM     17 CL   UNL d   1       6.742   2.418  14.256  0.00  0.00    -0.130 Cl
ENDBRANCH  15  16
ENDBRANCH  14  15
ENDBRANCH  13  14
ENDBRANCH   1  13
TORSDOF 12
ENDMDL
