MODEL 1
REMARK VINA RESULT:      -5.7      0.000      0.000
REMARK  8 active torsions:
REMARK  status: ('A' for Active; 'I' for Inactive)
REMARK    1  A    between atoms: O_4  and  C_14 
REMARK    2  A    between atoms: O_4  and  C_18 
REMARK    3  A    between atoms: O_5  and  C_17 
REMARK    4  A    between atoms: O_7  and  C_23 
REMARK    5  A    between atoms: N_8  and  CA_10 
REMARK    6  A    between atoms: C_9  and  CA_10 
REMARK    7  A    between atoms: C_9  and  C_11 
REMARK    8  A    between atoms: CA_10  and  C_17 
ROOT
ATOM      1  I   UNL d   1      15.591  -5.524   6.660  0.00  0.00    -0.042 I 
ATOM      2  I   UNL d   1      12.063  -0.654   7.705  0.00  0.00    -0.042 I 
ATOM      3  C   UNL d   1      15.848  -1.312   5.722  0.00  0.00    -0.053 A 
ATOM      4  C   UNL d   1      14.702  -0.741   6.252  0.00  0.00     0.028 A 
ATOM      5  C   UNL d   1      16.099  -2.669   5.838  0.00  0.00     0.028 A 
ATOM      6  C   UNL d   1      14.020  -2.920   7.044  0.00  0.00     0.109 A 
ATOM      7  C   UNL d   1      15.178  -3.478   6.504  0.00  0.00     0.042 A 
ATOM      8  C   UNL d   1      13.782  -1.551   6.918  0.00  0.00     0.042 A 
ENDROOT
BRANCH   6   9
ATOM      9  O   UNL d   1      13.118  -3.713   7.695  0.00  0.00    -0.308 OA
BRANCH   9  10
ATOM     10  C   UNL d   1      13.168  -3.734   9.077  0.00  0.00     0.077 A 
ATOM     11  C   UNL d   1      12.037  -4.095   9.789  0.00  0.00     0.058 A 
ATOM     12  C   UNL d   1      12.087  -4.117  11.182  0.00  0.00     0.042 A 
ATOM     13  I   UNL d   1      10.367  -4.664  12.235  0.00  0.00    -0.042 I 
ATOM     14  C   UNL d   1      13.269  -3.777  11.843  0.00  0.00     0.082 A 
ATOM     15  C   UNL d   1      14.399  -3.417  11.109  0.00  0.00     0.040 A 
ATOM     16  C   UNL d   1      14.347  -3.395   9.716  0.00  0.00     0.040 A 
BRANCH  14  17
ATOM     17  O   UNL d   1      13.360  -3.786  13.203  0.00  0.00    -0.359 OA
ATOM     18  H   UNL d   1      14.114  -3.237  13.478  0.00  0.00     0.217 HD
ENDBRANCH  14  17
ENDBRANCH   9  10
ENDBRANCH   6   9
BRANCH   3  19
ATOM     19  C   UNL d   1      16.844  -0.435   5.001  0.00  0.00     0.085 C 
BRANCH  19  20
ATOM     20  CA  UNL d   1      18.201  -1.122   4.788  0.00  0.00     0.318 C 
BRANCH  20  21
ATOM     21  N   UNL d   1      19.280  -0.220   5.184  0.00  0.00     0.093 N 
ATOM     22  H1  UNL d   1      19.505   0.405   4.411  0.00  0.00     0.314 HD
ATOM     23  H2  UNL d   1      20.130  -0.756   5.363  0.00  0.00     0.314 HD
ENDBRANCH  20  21
BRANCH  20  24
ATOM     24  C   UNL d   1      18.441  -1.474   3.330  0.00  0.00     0.174 C 
ATOM     25  OXT UNL d   1      18.284  -0.706   2.390  0.00  0.00    -0.648 OA
BRANCH  24  26
ATOM     26  O   UNL d   1      18.893  -2.746   3.173  0.00  0.00    -0.775 OA
ATOM     27  H   UNL d   1      19.803  -2.856   3.524  0.00  0.00     0.167 HD
ENDBRANCH  24  26
ENDBRANCH  20  24
ENDBRANCH  19  20
ENDBRANCH   3  19
TORSDOF 8
ENDMDL
MODEL 2
REMARK VINA RESULT:      -5.6      1.315      2.514
REMARK  8 active torsions:
REMARK  status: ('A' for Active; 'I' for Inactive)
REMARK    1  A    between atoms: O_4  and  C_14 
REMARK    2  A    between atoms: O_4  and  C_18 
REMARK    3  A    between atoms: O_5  and  C_17 
REMARK    4  A    between atoms: O_7  and  C_23 
REMARK    5  A    between atoms: N_8  and  CA_10 
REMARK    6  A    between atoms: C_9  and  CA_10 
REMARK    7  A    between atoms: C_9  and  C_11 
REMARK    8  A    between atoms: CA_10  and  C_17 
ROOT
ATOM      1  I   UNL d   1      12.950  -0.524   7.068  0.00  0.00    -0.042 I 
ATOM      2  I   UNL d   1      15.430  -6.093   6.776  0.00  0.00    -0.042 I 
ATOM      3  C   UNL d   1      16.635  -2.145   5.494  0.00  0.00    -0.053 A 
ATOM      4  C   UNL d   1      16.585  -3.505   5.752  0.00  0.00     0.028 A 
ATOM      5  C   UNL d   1      15.603  -1.300   5.868  0.00  0.00     0.028 A 
ATOM      6  C   UNL d   1      14.422  -3.197   6.785  0.00  0.00     0.109 A 
ATOM      7  C   UNL d   1      14.489  -1.830   6.518  0.00  0.00     0.042 A 
ATOM      8  C   UNL d   1      15.470  -4.035   6.402  0.00  0.00     0.042 A 
ENDROOT
BRANCH   6   9
ATOM      9  O   UNL d   1      13.331  -3.717   7.423  0.00  0.00    -0.308 OA
BRANCH   9  10
ATOM     10  C   UNL d   1      13.337  -3.712   8.806  0.00  0.00     0.077 A 
ATOM     11  C   UNL d   1      12.165  -3.987   9.488  0.00  0.00     0.058 A 
ATOM     12  C   UNL d   1      12.171  -3.981  10.883  0.00  0.00     0.042 A 
ATOM     13  I   UNL d   1      10.389  -4.399  11.891  0.00  0.00    -0.042 I 
ATOM     14  C   UNL d   1      13.351  -3.701  11.573  0.00  0.00     0.082 A 
ATOM     15  C   UNL d   1      14.523  -3.427  10.870  0.00  0.00     0.040 A 
ATOM     16  C   UNL d   1      14.516  -3.432   9.475  0.00  0.00     0.040 A 
BRANCH  14  17
ATOM     17  O   UNL d   1      13.400  -3.686  12.936  0.00  0.00    -0.359 OA
ATOM     18  H   UNL d   1      12.914  -4.453  13.283  0.00  0.00     0.217 HD
ENDBRANCH  14  17
ENDBRANCH   9  10
ENDBRANCH   6   9
BRANCH   3  19
ATOM     19  C   UNL d   1      17.842  -1.571   4.790  0.00  0.00     0.085 C 
BRANCH  19  20
ATOM     20  CA  UNL d   1      17.469  -0.607   3.652  0.00  0.00     0.318 C 
BRANCH  20  21
ATOM     21  N   UNL d   1      18.004  -1.105   2.387  0.00  0.00     0.093 N 
ATOM     22  H1  UNL d   1      17.257  -1.539   1.847  0.00  0.00     0.314 HD
ATOM     23  H2  UNL d   1      18.683  -1.846   2.566  0.00  0.00     0.314 HD
ENDBRANCH  20  21
BRANCH  20  24
ATOM     24  C   UNL d   1      18.058   0.777   3.859  0.00  0.00     0.174 C 
ATOM     25  OXT UNL d   1      17.406   1.811   3.929  0.00  0.00    -0.648 OA
BRANCH  24  26
ATOM     26  O   UNL d   1      19.409   0.748   3.998  0.00  0.00    -0.775 OA
ATOM     27  H   UNL d   1      19.867   0.862   3.138  0.00  0.00     0.167 HD
ENDBRANCH  24  26
ENDBRANCH  20  24
ENDBRANCH  19  20
ENDBRANCH   3  19
TORSDOF 8
ENDMDL
MODEL 3
REMARK VINA RESULT:      -5.6     11.299     12.466
REMARK  8 active torsions:
REMARK  status: ('A' for Active; 'I' for Inactive)
REMARK    1  A    between atoms: O_4  and  C_14 
REMARK    2  A    between atoms: O_4  and  C_18 
REMARK    3  A    between atoms: O_5  and  C_17 
REMARK    4  A    between atoms: O_7  and  C_23 
REMARK    5  A    between atoms: N_8  and  CA_10 
REMARK    6  A    between atoms: C_9  and  CA_10 
REMARK    7  A    between atoms: C_9  and  C_11 
REMARK    8  A    between atoms: CA_10  and  C_17 
ROOT
ATOM      1  I   UNL d   1       4.146   6.189   7.971  0.00  0.00    -0.042 I 
ATOM      2  I   UNL d   1       8.061   3.670  11.918  0.00  0.00    -0.042 I 
ATOM      3  C   UNL d   1       8.403   6.486   8.656  0.00  0.00    -0.053 A 
ATOM      4  C   UNL d   1       8.669   5.643   9.723  0.00  0.00     0.028 A 
ATOM      5  C   UNL d   1       7.119   6.640   8.160  0.00  0.00     0.028 A 
ATOM      6  C   UNL d   1       6.322   5.077   9.821  0.00  0.00     0.109 A 
ATOM      7  C   UNL d   1       6.072   5.930   8.747  0.00  0.00     0.042 A 
ATOM      8  C   UNL d   1       7.621   4.934  10.309  0.00  0.00     0.042 A 
ENDROOT
BRANCH   6   9
ATOM      9  O   UNL d   1       5.296   4.382  10.396  0.00  0.00    -0.308 OA
BRANCH   9  10
ATOM     10  C   UNL d   1       4.654   4.966  11.473  0.00  0.00     0.077 A 
ATOM     11  C   UNL d   1       3.735   4.225  12.196  0.00  0.00     0.058 A 
ATOM     12  C   UNL d   1       3.089   4.814  13.281  0.00  0.00     0.042 A 
ATOM     13  I   UNL d   1       1.705   3.676  14.357  0.00  0.00    -0.042 I 
ATOM     14  C   UNL d   1       3.371   6.136  13.628  0.00  0.00     0.082 A 
ATOM     15  C   UNL d   1       4.300   6.868  12.889  0.00  0.00     0.040 A 
ATOM     16  C   UNL d   1       4.947   6.278  11.803  0.00  0.00     0.040 A 
BRANCH  14  17
ATOM     17  O   UNL d   1       2.761   6.749  14.682  0.00  0.00    -0.359 OA
ATOM     18  H   UNL d   1       1.925   6.292  14.879  0.00  0.00     0.217 HD
ENDBRANCH  14  17
ENDBRANCH   9  10
ENDBRANCH   6   9
BRANCH   3  19
ATOM     19  C   UNL d   1       9.538   7.255   8.021  0.00  0.00     0.085 C 
BRANCH  19  20
ATOM     20  CA  UNL d   1      10.017   6.632   6.701  0.00  0.00     0.318 C 
BRANCH  20  21
ATOM     21  N   UNL d   1      11.463   6.800   6.571  0.00  0.00     0.093 N 
ATOM     22  H1  UNL d   1      11.914   5.887   6.560  0.00  0.00     0.314 HD
ATOM     23  H2  UNL d   1      11.830   7.281   7.393  0.00  0.00     0.314 HD
ENDBRANCH  20  21
BRANCH  20  24
ATOM     24  C   UNL d   1       9.391   7.304   5.492  0.00  0.00     0.174 C 
ATOM     25  OXT UNL d   1       8.398   6.897   4.902  0.00  0.00    -0.648 OA
BRANCH  24  26
ATOM     26  O   UNL d   1      10.037   8.447   5.143  0.00  0.00    -0.775 OA
ATOM     27  H   UNL d   1      10.051   9.096   5.878  0.00  0.00     0.167 HD
ENDBRANCH  24  26
ENDBRANCH  20  24
ENDBRANCH  19  20
ENDBRANCH   3  19
TORSDOF 8
ENDMDL
MODEL 4
REMARK VINA RESULT:      -5.1      3.345      4.246
REMARK  8 active torsions:
REMARK  status: ('A' for Active; 'I' for Inactive)
REMARK    1  A    between atoms: O_4  and  C_14 
REMARK    2  A    between atoms: O_4  and  C_18 
REMARK    3  A    between atoms: O_5  and  C_17 
REMARK    4  A    between atoms: O_7  and  C_23 
REMARK    5  A    between atoms: N_8  and  CA_10 
REMARK    6  A    between atoms: C_9  and  CA_10 
REMARK    7  A    between atoms: C_9  and  C_11 
REMARK    8  A    between atoms: CA_10  and  C_17 
ROOT
ATOM      1  I   UNL d   1      14.423  -4.235   9.231  0.00  0.00    -0.042 I 
ATOM      2  I   UNL d   1      12.986  -5.041   3.355  0.00  0.00    -0.042 I 
ATOM      3  C   UNL d   1      15.317  -2.142   5.557  0.00  0.00    -0.053 A 
ATOM      4  C   UNL d   1      14.675  -2.854   4.557  0.00  0.00     0.028 A 
ATOM      5  C   UNL d   1      15.244  -2.535   6.883  0.00  0.00     0.028 A 
ATOM      6  C   UNL d   1      13.857  -4.400   6.224  0.00  0.00     0.109 A 
ATOM      7  C   UNL d   1      14.509  -3.672   7.219  0.00  0.00     0.042 A 
ATOM      8  C   UNL d   1      13.940  -3.991   4.893  0.00  0.00     0.042 A 
ENDROOT
BRANCH   6   9
ATOM      9  O   UNL d   1      13.138  -5.514   6.552  0.00  0.00    -0.308 OA
BRANCH   9  10
ATOM     10  C   UNL d   1      13.836  -6.694   6.732  0.00  0.00     0.077 A 
ATOM     11  C   UNL d   1      13.273  -7.702   7.496  0.00  0.00     0.058 A 
ATOM     12  C   UNL d   1      13.977  -8.892   7.677  0.00  0.00     0.042 A 
ATOM     13  I   UNL d   1      13.109 -10.399   8.835  0.00  0.00    -0.042 I 
ATOM     14  C   UNL d   1      15.233  -9.056   7.090  0.00  0.00     0.082 A 
ATOM     15  C   UNL d   1      15.783  -8.030   6.323  0.00  0.00     0.040 A 
ATOM     16  C   UNL d   1      15.079  -6.840   6.143  0.00  0.00     0.040 A 
BRANCH  14  17
ATOM     17  O   UNL d   1      15.953 -10.204   7.242  0.00  0.00    -0.359 OA
ATOM     18  H   UNL d   1      16.874 -10.043   6.976  0.00  0.00     0.217 HD
ENDBRANCH  14  17
ENDBRANCH   9  10
ENDBRANCH   6   9
BRANCH   3  19
ATOM     19  C   UNL d   1      16.113  -0.910   5.193  0.00  0.00     0.085 C 
BRANCH  19  20
ATOM     20  CA  UNL d   1      17.620  -1.186   5.076  0.00  0.00     0.318 C 
BRANCH  20  21
ATOM     21  N   UNL d   1      18.369   0.043   5.328  0.00  0.00     0.093 N 
ATOM     22  H1  UNL d   1      17.839   0.643   5.957  0.00  0.00     0.314 HD
ATOM     23  H2  UNL d   1      18.470   0.570   4.460  0.00  0.00     0.314 HD
ENDBRANCH  20  21
BRANCH  20  24
ATOM     24  C   UNL d   1      18.009  -1.655   3.685  0.00  0.00     0.174 C 
ATOM     25  OXT UNL d   1      17.850  -1.007   2.658  0.00  0.00    -0.648 OA
BRANCH  24  26
ATOM     26  O   UNL d   1      18.597  -2.880   3.697  0.00  0.00    -0.775 OA
ATOM     27  H   UNL d   1      19.542  -2.834   3.439  0.00  0.00     0.167 HD
ENDBRANCH  24  26
ENDBRANCH  20  24
ENDBRANCH  19  20
ENDBRANCH   3  19
TORSDOF 8
ENDMDL
MODEL 5
REMARK VINA RESULT:      -5.0      3.820      7.275
REMARK  8 active torsions:
REMARK  status: ('A' for Active; 'I' for Inactive)
REMARK    1  A    between atoms: O_4  and  C_14 
REMARK    2  A    between atoms: O_4  and  C_18 
REMARK    3  A    between atoms: O_5  and  C_17 
REMARK    4  A    between atoms: O_7  and  C_23 
REMARK    5  A    between atoms: N_8  and  CA_10 
REMARK    6  A    between atoms: C_9  and  CA_10 
REMARK    7  A    between atoms: C_9  and  C_11 
REMARK    8  A    between atoms: CA_10  and  C_17 
ROOT
ATOM      1  I   UNL d   1      13.291  -1.717   8.262  0.00  0.00    -0.042 I 
ATOM      2  I   UNL d   1      15.559  -4.390   3.266  0.00  0.00    -0.042 I 
ATOM      3  C   UNL d   1      15.149  -5.527   7.417  0.00  0.00    -0.053 A 
ATOM      4  C   UNL d   1      15.438  -5.509   6.061  0.00  0.00     0.028 A 
ATOM      5  C   UNL d   1      14.539  -4.450   8.040  0.00  0.00     0.028 A 
ATOM      6  C   UNL d   1      14.494  -3.288   5.922  0.00  0.00     0.109 A 
ATOM      7  C   UNL d   1      14.211  -3.323   7.287  0.00  0.00     0.042 A 
ATOM      8  C   UNL d   1      15.108  -4.381   5.309  0.00  0.00     0.042 A 
ENDROOT
BRANCH   6   9
ATOM      9  O   UNL d   1      14.171  -2.185   5.185  0.00  0.00    -0.308 OA
BRANCH   9  10
ATOM     10  C   UNL d   1      15.187  -1.295   4.888  0.00  0.00     0.077 A 
ATOM     11  C   UNL d   1      15.062  -0.469   3.785  0.00  0.00     0.058 A 
ATOM     12  C   UNL d   1      16.087   0.429   3.486  0.00  0.00     0.042 A 
ATOM     13  I   UNL d   1      15.876   1.665   1.815  0.00  0.00    -0.042 I 
ATOM     14  C   UNL d   1      17.222   0.486   4.297  0.00  0.00     0.082 A 
ATOM     15  C   UNL d   1      17.331  -0.353   5.405  0.00  0.00     0.040 A 
ATOM     16  C   UNL d   1      16.305  -1.251   5.702  0.00  0.00     0.040 A 
BRANCH  14  17
ATOM     17  O   UNL d   1      18.246   1.349   4.039  0.00  0.00    -0.359 OA
ATOM     18  H   UNL d   1      17.882   2.194   3.723  0.00  0.00     0.217 HD
ENDBRANCH  14  17
ENDBRANCH   9  10
ENDBRANCH   6   9
BRANCH   3  19
ATOM     19  C   UNL d   1      15.505  -6.748   8.231  0.00  0.00     0.085 C 
BRANCH  19  20
ATOM     20  CA  UNL d   1      16.956  -7.206   8.018  0.00  0.00     0.318 C 
BRANCH  20  21
ATOM     21  N   UNL d   1      16.986  -8.640   7.736  0.00  0.00     0.093 N 
ATOM     22  H1  UNL d   1      17.119  -9.157   8.604  0.00  0.00     0.314 HD
ATOM     23  H2  UNL d   1      17.795  -8.861   7.156  0.00  0.00     0.314 HD
ENDBRANCH  20  21
BRANCH  20  24
ATOM     24  C   UNL d   1      17.811  -6.988   9.254  0.00  0.00     0.174 C 
ATOM     25  OXT UNL d   1      18.506  -7.846   9.785  0.00  0.00    -0.648 OA
BRANCH  24  26
ATOM     26  O   UNL d   1      17.755  -5.706   9.702  0.00  0.00    -0.775 OA
ATOM     27  H   UNL d   1      17.182  -5.621  10.493  0.00  0.00     0.167 HD
ENDBRANCH  24  26
ENDBRANCH  20  24
ENDBRANCH  19  20
ENDBRANCH   3  19
TORSDOF 8
ENDMDL
MODEL 6
REMARK VINA RESULT:      -4.9     13.636     15.250
REMARK  8 active torsions:
REMARK  status: ('A' for Active; 'I' for Inactive)
REMARK    1  A    between atoms: O_4  and  C_14 
REMARK    2  A    between atoms: O_4  and  C_18 
REMARK    3  A    between atoms: O_5  and  C_17 
REMARK    4  A    between atoms: O_7  and  C_23 
REMARK    5  A    between atoms: N_8  and  CA_10 
REMARK    6  A    between atoms: C_9  and  CA_10 
REMARK    7  A    between atoms: C_9  and  C_11 
REMARK    8  A    between atoms: CA_10  and  C_17 
ROOT
ATOM      1  I   UNL d   1       4.218   4.629   7.571  0.00  0.00    -0.042 I 
ATOM      2  I   UNL d   1       3.250   6.174  13.395  0.00  0.00    -0.042 I 
ATOM      3  C   UNL d   1       2.131   7.844   9.568  0.00  0.00    -0.053 A 
ATOM      4  C   UNL d   1       2.294   7.609  10.924  0.00  0.00     0.028 A 
ATOM      5  C   UNL d   1       2.677   6.997   8.617  0.00  0.00     0.028 A 
ATOM      6  C   UNL d   1       3.582   5.634  10.395  0.00  0.00     0.109 A 
ATOM      7  C   UNL d   1       3.408   5.885   9.034  0.00  0.00     0.042 A 
ATOM      8  C   UNL d   1       3.025   6.497  11.340  0.00  0.00     0.042 A 
ENDROOT
BRANCH   6   9
ATOM      9  O   UNL d   1       4.297   4.544  10.804  0.00  0.00    -0.308 OA
BRANCH   9  10
ATOM     10  C   UNL d   1       5.673   4.673  10.875  0.00  0.00     0.077 A 
ATOM     11  C   UNL d   1       6.458   3.533  10.896  0.00  0.00     0.058 A 
ATOM     12  C   UNL d   1       7.844   3.664  10.969  0.00  0.00     0.042 A 
ATOM     13  I   UNL d   1       9.010   1.929  11.001  0.00  0.00    -0.042 I 
ATOM     14  C   UNL d   1       8.424   4.932  11.018  0.00  0.00     0.082 A 
ATOM     15  C   UNL d   1       7.618   6.069  10.995  0.00  0.00     0.040 A 
ATOM     16  C   UNL d   1       6.231   5.938  10.923  0.00  0.00     0.040 A 
BRANCH  14  17
ATOM     17  O   UNL d   1       9.775   5.103  11.089  0.00  0.00    -0.359 OA
ATOM     18  H   UNL d   1      10.075   4.919  11.996  0.00  0.00     0.217 HD
ENDBRANCH  14  17
ENDBRANCH   9  10
ENDBRANCH   6   9
BRANCH   3  19
ATOM     19  C   UNL d   1       1.339   9.049   9.117  0.00  0.00     0.085 C 
BRANCH  19  20
ATOM     20  CA  UNL d   1       2.139   9.977   8.190  0.00  0.00     0.318 C 
BRANCH  20  21
ATOM     21  N   UNL d   1       2.150  11.332   8.737  0.00  0.00     0.093 N 
ATOM     22  H1  UNL d   1       2.707  11.939   8.137  0.00  0.00     0.314 HD
ATOM     23  H2  UNL d   1       2.618  11.334   9.644  0.00  0.00     0.314 HD
ENDBRANCH  20  21
BRANCH  20  24
ATOM     24  C   UNL d   1       1.522  10.073   6.806  0.00  0.00     0.174 C 
ATOM     25  OXT UNL d   1       1.141   9.117   6.142  0.00  0.00    -0.648 OA
BRANCH  24  26
ATOM     26  O   UNL d   1       1.399  11.358   6.382  0.00  0.00    -0.775 OA
ATOM     27  H   UNL d   1       2.273  11.779   6.236  0.00  0.00     0.167 HD
ENDBRANCH  24  26
ENDBRANCH  20  24
ENDBRANCH  19  20
ENDBRANCH   3  19
TORSDOF 8
ENDMDL
MODEL 7
REMARK VINA RESULT:      -4.9      2.390      4.312
REMARK  8 active torsions:
REMARK  status: ('A' for Active; 'I' for Inactive)
REMARK    1  A    between atoms: O_4  and  C_14 
REMARK    2  A    between atoms: O_4  and  C_18 
REMARK    3  A    between atoms: O_5  and  C_17 
REMARK    4  A    between atoms: O_7  and  C_23 
REMARK    5  A    between atoms: N_8  and  CA_10 
REMARK    6  A    between atoms: C_9  and  CA_10 
REMARK    7  A    between atoms: C_9  and  C_11 
REMARK    8  A    between atoms: CA_10  and  C_17 
ROOT
ATOM      1  I   UNL d   1      12.207  -0.938   7.853  0.00  0.00    -0.042 I 
ATOM      2  I   UNL d   1      15.961  -5.658   6.913  0.00  0.00    -0.042 I 
ATOM      3  C   UNL d   1      15.936  -1.497   5.740  0.00  0.00    -0.053 A 
ATOM      4  C   UNL d   1      16.269  -2.830   5.918  0.00  0.00     0.028 A 
ATOM      5  C   UNL d   1      14.783  -0.961   6.290  0.00  0.00     0.028 A 
ATOM      6  C   UNL d   1      14.259  -3.126   7.226  0.00  0.00     0.109 A 
ATOM      7  C   UNL d   1      13.939  -1.782   7.038  0.00  0.00     0.042 A 
ATOM      8  C   UNL d   1      15.424  -3.650   6.666  0.00  0.00     0.042 A 
ENDROOT
BRANCH   6   9
ATOM      9  O   UNL d   1      13.433  -3.930   7.959  0.00  0.00    -0.308 OA
BRANCH   9  10
ATOM     10  C   UNL d   1      12.471  -4.650   7.275  0.00  0.00     0.077 A 
ATOM     11  C   UNL d   1      12.382  -4.524   5.900  0.00  0.00     0.058 A 
ATOM     12  C   UNL d   1      11.412  -5.251   5.211  0.00  0.00     0.042 A 
ATOM     13  I   UNL d   1      11.296  -5.044   3.134  0.00  0.00    -0.042 I 
ATOM     14  C   UNL d   1      10.544  -6.093   5.908  0.00  0.00     0.082 A 
ATOM     15  C   UNL d   1      10.649  -6.208   7.294  0.00  0.00     0.040 A 
ATOM     16  C   UNL d   1      11.620  -5.481   7.983  0.00  0.00     0.040 A 
BRANCH  14  17
ATOM     17  O   UNL d   1       9.582  -6.820   5.272  0.00  0.00    -0.359 OA
ATOM     18  H   UNL d   1       8.713  -6.416   5.436  0.00  0.00     0.217 HD
ENDBRANCH  14  17
ENDBRANCH   9  10
ENDBRANCH   6   9
BRANCH   3  19
ATOM     19  C   UNL d   1      16.851  -0.608   4.931  0.00  0.00     0.085 C 
BRANCH  19  20
ATOM     20  CA  UNL d   1      18.192  -1.278   4.595  0.00  0.00     0.318 C 
BRANCH  20  21
ATOM     21  N   UNL d   1      19.280  -0.316   4.754  0.00  0.00     0.093 N 
ATOM     22  H1  UNL d   1      20.002  -0.498   4.059  0.00  0.00     0.314 HD
ATOM     23  H2  UNL d   1      19.728  -0.449   5.661  0.00  0.00     0.314 HD
ENDBRANCH  20  21
BRANCH  20  24
ATOM     24  C   UNL d   1      18.245  -1.760   3.156  0.00  0.00     0.174 C 
ATOM     25  OXT UNL d   1      17.424  -1.478   2.292  0.00  0.00    -0.648 OA
BRANCH  24  26
ATOM     26  O   UNL d   1      19.340  -2.525   2.907  0.00  0.00    -0.775 OA
ATOM     27  H   UNL d   1      19.138  -3.263   2.293  0.00  0.00     0.167 HD
ENDBRANCH  24  26
ENDBRANCH  20  24
ENDBRANCH  19  20
ENDBRANCH   3  19
TORSDOF 8
ENDMDL
MODEL 8
REMARK VINA RESULT:      -4.9      9.755     12.604
REMARK  8 active torsions:
REMARK  status: ('A' for Active; 'I' for Inactive)
REMARK    1  A    between atoms: O_4  and  C_14 
REMARK    2  A    between atoms: O_4  and  C_18 
REMARK    3  A    between atoms: O_5  and  C_17 
REMARK    4  A    between atoms: O_7  and  C_23 
REMARK    5  A    between atoms: N_8  and  CA_10 
REMARK    6  A    between atoms: C_9  and  CA_10 
REMARK    7  A    between atoms: C_9  and  C_11 
REMARK    8  A    between atoms: CA_10  and  C_17 
ROOT
ATOM      1  I   UNL d   1       8.725   2.053  11.869  0.00  0.00    -0.042 I 
ATOM      2  I   UNL d   1       9.110   6.925   8.213  0.00  0.00    -0.042 I 
ATOM      3  C   UNL d   1       6.377   5.638  11.305  0.00  0.00    -0.053 A 
ATOM      4  C   UNL d   1       7.015   6.348  10.301  0.00  0.00     0.028 A 
ATOM      5  C   UNL d   1       6.863   4.419  11.749  0.00  0.00     0.028 A 
ATOM      6  C   UNL d   1       8.675   4.598  10.161  0.00  0.00     0.109 A 
ATOM      7  C   UNL d   1       8.020   3.896  11.172  0.00  0.00     0.042 A 
ATOM      8  C   UNL d   1       8.173   5.824   9.725  0.00  0.00     0.042 A 
ENDROOT
BRANCH   6   9
ATOM      9  O   UNL d   1       9.809   4.085   9.597  0.00  0.00    -0.308 OA
BRANCH   9  10
ATOM     10  C   UNL d   1       9.655   3.150   8.590  0.00  0.00     0.077 A 
ATOM     11  C   UNL d   1      10.723   2.336   8.254  0.00  0.00     0.058 A 
ATOM     12  C   UNL d   1      10.567   1.393   7.239  0.00  0.00     0.042 A 
ATOM     13  I   UNL d   1      12.193   0.175   6.749  0.00  0.00    -0.042 I 
ATOM     14  C   UNL d   1       9.345   1.280   6.574  0.00  0.00     0.082 A 
ATOM     15  C   UNL d   1       8.280   2.108   6.926  0.00  0.00     0.040 A 
ATOM     16  C   UNL d   1       8.437   3.051   7.942  0.00  0.00     0.040 A 
BRANCH  14  17
ATOM     17  O   UNL d   1       9.152   0.371   5.576  0.00  0.00    -0.359 OA
ATOM     18  H   UNL d   1       8.306   0.555   5.133  0.00  0.00     0.217 HD
ENDBRANCH  14  17
ENDBRANCH   9  10
ENDBRANCH   6   9
BRANCH   3  19
ATOM     19  C   UNL d   1       5.124   6.206  11.929  0.00  0.00     0.085 C 
BRANCH  19  20
ATOM     20  CA  UNL d   1       4.192   5.121  12.492  0.00  0.00     0.318 C 
BRANCH  20  21
ATOM     21  N   UNL d   1       2.880   5.218  11.856  0.00  0.00     0.093 N 
ATOM     22  H1  UNL d   1       2.178   4.778  12.450  0.00  0.00     0.314 HD
ATOM     23  H2  UNL d   1       2.878   4.688  10.985  0.00  0.00     0.314 HD
ENDBRANCH  20  21
BRANCH  20  24
ATOM     24  C   UNL d   1       3.965   5.281  13.985  0.00  0.00     0.174 C 
ATOM     25  OXT UNL d   1       4.106   4.390  14.813  0.00  0.00    -0.648 OA
BRANCH  24  26
ATOM     26  O   UNL d   1       3.617   6.550  14.322  0.00  0.00    -0.775 OA
ATOM     27  H   UNL d   1       4.237   7.210  13.945  0.00  0.00     0.167 HD
ENDBRANCH  24  26
ENDBRANCH  20  24
ENDBRANCH  19  20
ENDBRANCH   3  19
TORSDOF 8
ENDMDL
MODEL 9
REMARK VINA RESULT:      -4.8      5.204      7.766
REMARK  8 active torsions:
REMARK  status: ('A' for Active; 'I' for Inactive)
REMARK    1  A    between atoms: O_4  and  C_14 
REMARK    2  A    between atoms: O_4  and  C_18 
REMARK    3  A    between atoms: O_5  and  C_17 
REMARK    4  A    between atoms: O_7  and  C_23 
REMARK    5  A    between atoms: N_8  and  CA_10 
REMARK    6  A    between atoms: C_9  and  CA_10 
REMARK    7  A    between atoms: C_9  and  C_11 
REMARK    8  A    between atoms: CA_10  and  C_17 
ROOT
ATOM      1  I   UNL d   1      11.277   1.354   4.733  0.00  0.00    -0.042 I 
ATOM      2  I   UNL d   1      11.182  -2.573   9.404  0.00  0.00    -0.042 I 
ATOM      3  C   UNL d   1      10.633   1.695   8.994  0.00  0.00    -0.053 A 
ATOM      4  C   UNL d   1      10.746   0.408   9.492  0.00  0.00     0.028 A 
ATOM      5  C   UNL d   1      10.783   1.962   7.643  0.00  0.00     0.028 A 
ATOM      6  C   UNL d   1      11.173  -0.389   7.252  0.00  0.00     0.109 A 
ATOM      7  C   UNL d   1      11.056   0.912   6.766  0.00  0.00     0.042 A 
ATOM      8  C   UNL d   1      11.018  -0.642   8.615  0.00  0.00     0.042 A 
ENDROOT
BRANCH   6   9
ATOM      9  O   UNL d   1      11.439  -1.418   6.393  0.00  0.00    -0.308 OA
BRANCH   9  10
ATOM     10  C   UNL d   1      12.751  -1.844   6.293  0.00  0.00     0.077 A 
ATOM     11  C   UNL d   1      13.011  -3.165   5.972  0.00  0.00     0.058 A 
ATOM     12  C   UNL d   1      14.334  -3.594   5.872  0.00  0.00     0.042 A 
ATOM     13  I   UNL d   1      14.701  -5.593   5.387  0.00  0.00    -0.042 I 
ATOM     14  C   UNL d   1      15.377  -2.694   6.094  0.00  0.00     0.082 A 
ATOM     15  C   UNL d   1      15.097  -1.367   6.416  0.00  0.00     0.040 A 
ATOM     16  C   UNL d   1      13.773  -0.939   6.516  0.00  0.00     0.040 A 
BRANCH  14  17
ATOM     17  O   UNL d   1      16.684  -3.073   6.005  0.00  0.00    -0.359 OA
ATOM     18  H   UNL d   1      17.182  -2.686   6.745  0.00  0.00     0.217 HD
ENDBRANCH  14  17
ENDBRANCH   9  10
ENDBRANCH   6   9
BRANCH   3  19
ATOM     19  C   UNL d   1      10.337   2.832   9.944  0.00  0.00     0.085 C 
BRANCH  19  20
ATOM     20  CA  UNL d   1      10.606   4.213   9.326  0.00  0.00     0.318 C 
BRANCH  20  21
ATOM     21  N   UNL d   1      11.998   4.594   9.553  0.00  0.00     0.093 N 
ATOM     22  H1  UNL d   1      12.325   4.190  10.429  0.00  0.00     0.314 HD
ATOM     23  H2  UNL d   1      12.064   5.605   9.672  0.00  0.00     0.314 HD
ENDBRANCH  20  21
BRANCH  20  24
ATOM     24  C   UNL d   1       9.750   5.298   9.955  0.00  0.00     0.174 C 
ATOM     25  OXT UNL d   1       9.254   6.239   9.349  0.00  0.00    -0.648 OA
BRANCH  24  26
ATOM     26  O   UNL d   1       9.555   5.095  11.285  0.00  0.00    -0.775 OA
ATOM     27  H   UNL d   1       8.766   5.576  11.615  0.00  0.00     0.167 HD
ENDBRANCH  24  26
ENDBRANCH  20  24
ENDBRANCH  19  20
ENDBRANCH   3  19
TORSDOF 8
ENDMDL
