MODEL 1
REMARK VINA RESULT:      -0.0      0.000      0.000
REMARK  8 active torsions:
REMARK  status: ('A' for Active; 'I' for Inactive)
REMARK    1  A    between atoms: O_4  and  C_14 
REMARK    2  A    between atoms: O_4  and  C_18 
REMARK    3  A    between atoms: O_5  and  C_17 
REMARK    4  A    between atoms: O_7  and  C_23 
REMARK    5  A    between atoms: N_8  and  CA_10 
REMARK    6  A    between atoms: C_9  and  CA_10 
REMARK    7  A    between atoms: C_9  and  C_11 
REMARK    8  A    between atoms: CA_10  and  C_17 
ROOT
ATOM      1  I   UNL d   1      -0.663  -6.621   5.640  0.00  0.00    -0.042 I 
ATOM      2  I   UNL d   1       5.023  -4.408   5.794  0.00  0.00    -0.042 I 
ATOM      3  C   UNL d   1       1.109  -2.834   6.737  0.00  0.00    -0.053 A 
ATOM      4  C   UNL d   1       2.472  -2.989   6.541  0.00  0.00     0.028 A 
ATOM      5  C   UNL d   1       0.220  -3.865   6.481  0.00  0.00     0.028 A 
ATOM      6  C   UNL d   1       2.077  -5.259   5.813  0.00  0.00     0.109 A 
ATOM      7  C   UNL d   1       0.708  -5.086   6.015  0.00  0.00     0.042 A 
ATOM      8  C   UNL d   1       2.959  -4.211   6.076  0.00  0.00     0.042 A 
ENDROOT
BRANCH   6   9
ATOM      9  O   UNL d   1       2.555  -6.455   5.359  0.00  0.00    -0.308 OA
BRANCH   9  10
ATOM     10  C   UNL d   1       2.836  -6.560   4.009  0.00  0.00     0.077 A 
ATOM     11  C   UNL d   1       2.219  -5.695   3.121  0.00  0.00     0.058 A 
ATOM     12  C   UNL d   1       2.502  -5.801   1.760  0.00  0.00     0.042 A 
ATOM     13  I   UNL d   1       1.558  -4.486   0.438  0.00  0.00    -0.042 I 
ATOM     14  C   UNL d   1       3.399  -6.770   1.307  0.00  0.00     0.082 A 
ATOM     15  C   UNL d   1       4.012  -7.631   2.216  0.00  0.00     0.040 A 
ATOM     16  C   UNL d   1       3.728  -7.525   3.577  0.00  0.00     0.040 A 
BRANCH  14  17
ATOM     17  O   UNL d   1       3.703  -6.906  -0.015  0.00  0.00    -0.359 OA
ATOM     18  H   UNL d   1       3.711  -6.028  -0.435  0.00  0.00     0.217 HD
ENDBRANCH  14  17
ENDBRANCH   9  10
ENDBRANCH   6   9
BRANCH   3  19
ATOM     19  C   UNL d   1       0.581  -1.511   7.241  0.00  0.00     0.085 C 
BRANCH  19  20
ATOM     20  CA  UNL d   1       0.920  -0.338   6.309  0.00  0.00     0.318 C 
BRANCH  20  21
ATOM     21  N   UNL d   1       0.454   0.915   6.900  0.00  0.00     0.093 N 
ATOM     22  H1  UNL d   1      -0.564   0.937   6.898  0.00  0.00     0.314 HD
ATOM     23  H2  UNL d   1       0.750   1.701   6.321  0.00  0.00     0.314 HD
ENDBRANCH  20  21
BRANCH  20  24
ATOM     24  C   UNL d   1       0.234  -0.463   4.960  0.00  0.00     0.174 C 
ATOM     25  OXT UNL d   1      -0.977  -0.538   4.795  0.00  0.00    -0.648 OA
BRANCH  24  26
ATOM     26  O   UNL d   1       1.117  -0.448   3.927  0.00  0.00    -0.775 OA
ATOM     27  H   UNL d   1       1.287   0.463   3.606  0.00  0.00     0.167 HD
ENDBRANCH  24  26
ENDBRANCH  20  24
ENDBRANCH  19  20
ENDBRANCH   3  19
TORSDOF 8
ENDMDL
MODEL 2
REMARK VINA RESULT:      -0.0     12.699     14.720
REMARK  8 active torsions:
REMARK  status: ('A' for Active; 'I' for Inactive)
REMARK    1  A    between atoms: O_4  and  C_14 
REMARK    2  A    between atoms: O_4  and  C_18 
REMARK    3  A    between atoms: O_5  and  C_17 
REMARK    4  A    between atoms: O_7  and  C_23 
REMARK    5  A    between atoms: N_8  and  CA_10 
REMARK    6  A    between atoms: C_9  and  CA_10 
REMARK    7  A    between atoms: C_9  and  C_11 
REMARK    8  A    between atoms: CA_10  and  C_17 
ROOT
ATOM      1  I   UNL d   1     -10.405  -0.964   9.830  0.00  0.00    -0.042 I 
ATOM      2  I   UNL d   1     -10.225   4.618  12.293  0.00  0.00    -0.042 I 
ATOM      3  C   UNL d   1     -11.172   3.036   8.383  0.00  0.00    -0.053 A 
ATOM      4  C   UNL d   1     -10.947   3.874   9.463  0.00  0.00     0.028 A 
ATOM      5  C   UNL d   1     -11.018   1.664   8.488  0.00  0.00     0.028 A 
ATOM      6  C   UNL d   1     -10.396   1.942  10.806  0.00  0.00     0.109 A 
ATOM      7  C   UNL d   1     -10.627   1.113   9.709  0.00  0.00     0.042 A 
ATOM      8  C   UNL d   1     -10.556   3.322  10.683  0.00  0.00     0.042 A 
ENDROOT
BRANCH   6   9
ATOM      9  O   UNL d   1     -10.014   1.402  12.001  0.00  0.00    -0.308 OA
BRANCH   9  10
ATOM     10  C   UNL d   1      -8.667   1.433  12.315  0.00  0.00     0.077 A 
ATOM     11  C   UNL d   1      -7.737   1.538  11.295  0.00  0.00     0.058 A 
ATOM     12  C   UNL d   1      -6.380   1.569  11.611  0.00  0.00     0.042 A 
ATOM     13  I   UNL d   1      -4.995   1.726  10.054  0.00  0.00    -0.042 I 
ATOM     14  C   UNL d   1      -5.973   1.495  12.944  0.00  0.00     0.082 A 
ATOM     15  C   UNL d   1      -6.923   1.390  13.959  0.00  0.00     0.040 A 
ATOM     16  C   UNL d   1      -8.281   1.359  13.641  0.00  0.00     0.040 A 
BRANCH  14  17
ATOM     17  O   UNL d   1      -4.655   1.522  13.296  0.00  0.00    -0.359 OA
ATOM     18  H   UNL d   1      -4.185   0.806  12.836  0.00  0.00     0.217 HD
ENDBRANCH  14  17
ENDBRANCH   9  10
ENDBRANCH   6   9
BRANCH   3  19
ATOM     19  C   UNL d   1     -11.596   3.633   7.061  0.00  0.00     0.085 C 
BRANCH  19  20
ATOM     20  CA  UNL d   1     -10.577   4.641   6.506  0.00  0.00     0.318 C 
BRANCH  20  21
ATOM     21  N   UNL d   1     -11.091   5.236   5.275  0.00  0.00     0.093 N 
ATOM     22  H1  UNL d   1     -10.316   5.452   4.649  0.00  0.00     0.314 HD
ATOM     23  H2  UNL d   1     -11.536   6.130   5.483  0.00  0.00     0.314 HD
ENDBRANCH  20  21
BRANCH  20  24
ATOM     24  C   UNL d   1      -9.256   3.981   6.152  0.00  0.00     0.174 C 
ATOM     25  OXT UNL d   1      -8.176   4.262   6.655  0.00  0.00    -0.648 OA
BRANCH  24  26
ATOM     26  O   UNL d   1      -9.402   2.998   5.224  0.00  0.00    -0.775 OA
ATOM     27  H   UNL d   1      -8.570   2.497   5.091  0.00  0.00     0.167 HD
ENDBRANCH  24  26
ENDBRANCH  20  24
ENDBRANCH  19  20
ENDBRANCH   3  19
TORSDOF 8
ENDMDL
MODEL 3
REMARK VINA RESULT:      -0.0      6.283      8.683
REMARK  8 active torsions:
REMARK  status: ('A' for Active; 'I' for Inactive)
REMARK    1  A    between atoms: O_4  and  C_14 
REMARK    2  A    between atoms: O_4  and  C_18 
REMARK    3  A    between atoms: O_5  and  C_17 
REMARK    4  A    between atoms: O_7  and  C_23 
REMARK    5  A    between atoms: N_8  and  CA_10 
REMARK    6  A    between atoms: C_9  and  CA_10 
REMARK    7  A    between atoms: C_9  and  C_11 
REMARK    8  A    between atoms: CA_10  and  C_17 
ROOT
ATOM      1  I   UNL d   1      -5.058  -1.875  -1.490  0.00  0.00    -0.042 I 
ATOM      2  I   UNL d   1      -0.516  -0.803   2.442  0.00  0.00    -0.042 I 
ATOM      3  C   UNL d   1      -0.744  -2.044  -1.692  0.00  0.00    -0.053 A 
ATOM      4  C   UNL d   1      -0.297  -1.676  -0.434  0.00  0.00     0.028 A 
ATOM      5  C   UNL d   1      -2.095  -2.100  -1.991  0.00  0.00     0.028 A 
ATOM      6  C   UNL d   1      -2.593  -1.407   0.269  0.00  0.00     0.109 A 
ATOM      7  C   UNL d   1      -3.026  -1.780  -1.003  0.00  0.00     0.042 A 
ATOM      8  C   UNL d   1      -1.228  -1.355   0.554  0.00  0.00     0.042 A 
ENDROOT
BRANCH   6   9
ATOM      9  O   UNL d   1      -3.504  -1.092   1.237  0.00  0.00    -0.308 OA
BRANCH   9  10
ATOM     10  C   UNL d   1      -3.815  -2.069   2.165  0.00  0.00     0.077 A 
ATOM     11  C   UNL d   1      -3.616  -3.400   1.838  0.00  0.00     0.058 A 
ATOM     12  C   UNL d   1      -3.929  -4.385   2.774  0.00  0.00     0.042 A 
ATOM     13  I   UNL d   1      -3.621  -6.386   2.257  0.00  0.00    -0.042 I 
ATOM     14  C   UNL d   1      -4.437  -4.024   4.022  0.00  0.00     0.082 A 
ATOM     15  C   UNL d   1      -4.631  -2.679   4.335  0.00  0.00     0.040 A 
ATOM     16  C   UNL d   1      -4.317  -1.694   3.398  0.00  0.00     0.040 A 
BRANCH  14  17
ATOM     17  O   UNL d   1      -4.756  -4.956   4.965  0.00  0.00    -0.359 OA
ATOM     18  H   UNL d   1      -4.242  -5.765   4.804  0.00  0.00     0.217 HD
ENDBRANCH  14  17
ENDBRANCH   9  10
ENDBRANCH   6   9
BRANCH   3  19
ATOM     19  C   UNL d   1       0.265  -2.391  -2.762  0.00  0.00     0.085 C 
BRANCH  19  20
ATOM     20  CA  UNL d   1       1.158  -3.581  -2.378  0.00  0.00     0.318 C 
BRANCH  20  21
ATOM     21  N   UNL d   1       2.161  -3.802  -3.417  0.00  0.00     0.093 N 
ATOM     22  H1  UNL d   1       2.365  -2.922  -3.889  0.00  0.00     0.314 HD
ATOM     23  H2  UNL d   1       1.784  -4.421  -4.136  0.00  0.00     0.314 HD
ENDBRANCH  20  21
BRANCH  20  24
ATOM     24  C   UNL d   1       0.368  -4.872  -2.254  0.00  0.00     0.174 C 
ATOM     25  OXT UNL d   1      -0.235  -5.414  -3.171  0.00  0.00    -0.648 OA
BRANCH  24  26
ATOM     26  O   UNL d   1       0.429  -5.397  -1.002  0.00  0.00    -0.775 OA
ATOM     27  H   UNL d   1       1.020  -4.877  -0.417  0.00  0.00     0.167 HD
ENDBRANCH  24  26
ENDBRANCH  20  24
ENDBRANCH  19  20
ENDBRANCH   3  19
TORSDOF 8
ENDMDL
MODEL 4
REMARK VINA RESULT:      -0.0      6.808      9.499
REMARK  8 active torsions:
REMARK  status: ('A' for Active; 'I' for Inactive)
REMARK    1  A    between atoms: O_4  and  C_14 
REMARK    2  A    between atoms: O_4  and  C_18 
REMARK    3  A    between atoms: O_5  and  C_17 
REMARK    4  A    between atoms: O_7  and  C_23 
REMARK    5  A    between atoms: N_8  and  CA_10 
REMARK    6  A    between atoms: C_9  and  CA_10 
REMARK    7  A    between atoms: C_9  and  C_11 
REMARK    8  A    between atoms: CA_10  and  C_17 
ROOT
ATOM      1  I   UNL d   1      -4.321  -2.678  -2.944  0.00  0.00    -0.042 I 
ATOM      2  I   UNL d   1       0.200  -3.286   1.110  0.00  0.00    -0.042 I 
ATOM      3  C   UNL d   1      -0.343  -4.364  -3.042  0.00  0.00    -0.053 A 
ATOM      4  C   UNL d   1       0.172  -4.178  -1.769  0.00  0.00     0.028 A 
ATOM      5  C   UNL d   1      -1.618  -3.937  -3.374  0.00  0.00     0.028 A 
ATOM      6  C   UNL d   1      -1.898  -3.115  -1.120  0.00  0.00     0.109 A 
ATOM      7  C   UNL d   1      -2.401  -3.309  -2.406  0.00  0.00     0.042 A 
ATOM      8  C   UNL d   1      -0.611  -3.549  -0.801  0.00  0.00     0.042 A 
ENDROOT
BRANCH   6   9
ATOM      9  O   UNL d   1      -2.664  -2.498  -0.172  0.00  0.00    -0.308 OA
BRANCH   9  10
ATOM     10  C   UNL d   1      -3.326  -3.303   0.738  0.00  0.00     0.077 A 
ATOM     11  C   UNL d   1      -3.601  -4.617   0.402  0.00  0.00     0.058 A 
ATOM     12  C   UNL d   1      -4.268  -5.428   1.320  0.00  0.00     0.042 A 
ATOM     13  I   UNL d   1      -4.675  -7.409   0.791  0.00  0.00    -0.042 I 
ATOM     14  C   UNL d   1      -4.649  -4.912   2.560  0.00  0.00     0.082 A 
ATOM     15  C   UNL d   1      -4.362  -3.586   2.881  0.00  0.00     0.040 A 
ATOM     16  C   UNL d   1      -3.695  -2.775   1.962  0.00  0.00     0.040 A 
BRANCH  14  17
ATOM     17  O   UNL d   1      -5.302  -5.672   3.485  0.00  0.00    -0.359 OA
ATOM     18  H   UNL d   1      -5.103  -6.611   3.328  0.00  0.00     0.217 HD
ENDBRANCH  14  17
ENDBRANCH   9  10
ENDBRANCH   6   9
BRANCH   3  19
ATOM     19  C   UNL d   1       0.506  -5.045  -4.090  0.00  0.00     0.085 C 
BRANCH  19  20
ATOM     20  CA  UNL d   1       0.910  -6.474  -3.696  0.00  0.00     0.318 C 
BRANCH  20  21
ATOM     21  N   UNL d   1       1.797  -7.035  -4.712  0.00  0.00     0.093 N 
ATOM     22  H1  UNL d   1       2.693  -6.550  -4.690  0.00  0.00     0.314 HD
ATOM     23  H2  UNL d   1       1.412  -6.862  -5.641  0.00  0.00     0.314 HD
ENDBRANCH  20  21
BRANCH  20  24
ATOM     24  C   UNL d   1      -0.288  -7.402  -3.605  0.00  0.00     0.174 C 
ATOM     25  OXT UNL d   1      -1.033  -7.677  -4.537  0.00  0.00    -0.648 OA
BRANCH  24  26
ATOM     26  O   UNL d   1      -0.435  -7.937  -2.364  0.00  0.00    -0.775 OA
ATOM     27  H   UNL d   1       0.295  -7.671  -1.765  0.00  0.00     0.167 HD
ENDBRANCH  24  26
ENDBRANCH  20  24
ENDBRANCH  19  20
ENDBRANCH   3  19
TORSDOF 8
ENDMDL
MODEL 5
REMARK VINA RESULT:      -0.0     11.059     12.012
REMARK  8 active torsions:
REMARK  status: ('A' for Active; 'I' for Inactive)
REMARK    1  A    between atoms: O_4  and  C_14 
REMARK    2  A    between atoms: O_4  and  C_18 
REMARK    3  A    between atoms: O_5  and  C_17 
REMARK    4  A    between atoms: O_7  and  C_23 
REMARK    5  A    between atoms: N_8  and  CA_10 
REMARK    6  A    between atoms: C_9  and  CA_10 
REMARK    7  A    between atoms: C_9  and  C_11 
REMARK    8  A    between atoms: CA_10  and  C_17 
ROOT
ATOM      1  I   UNL d   1       5.695   1.600  -1.719  0.00  0.00    -0.042 I 
ATOM      2  I   UNL d   1       4.441   6.406  -5.266  0.00  0.00    -0.042 I 
ATOM      3  C   UNL d   1       5.688   5.886  -1.159  0.00  0.00    -0.053 A 
ATOM      4  C   UNL d   1       5.303   6.421  -2.378  0.00  0.00     0.028 A 
ATOM      5  C   UNL d   1       5.799   4.518  -0.974  0.00  0.00     0.028 A 
ATOM      6  C   UNL d   1       5.126   4.182  -3.269  0.00  0.00     0.109 A 
ATOM      7  C   UNL d   1       5.516   3.660  -2.036  0.00  0.00     0.042 A 
ATOM      8  C   UNL d   1       5.020   5.562  -3.440  0.00  0.00     0.042 A 
ENDROOT
BRANCH   6   9
ATOM      9  O   UNL d   1       4.850   3.342  -4.311  0.00  0.00    -0.308 OA
BRANCH   9  10
ATOM     10  C   UNL d   1       3.521   3.051  -4.561  0.00  0.00     0.077 A 
ATOM     11  C   UNL d   1       2.596   3.183  -3.540  0.00  0.00     0.058 A 
ATOM     12  C   UNL d   1       1.257   2.889  -3.794  0.00  0.00     0.042 A 
ATOM     13  I   UNL d   1      -0.122   3.095  -2.236  0.00  0.00    -0.042 I 
ATOM     14  C   UNL d   1       0.863   2.468  -5.065  0.00  0.00     0.082 A 
ATOM     15  C   UNL d   1       1.809   2.341  -6.081  0.00  0.00     0.040 A 
ATOM     16  C   UNL d   1       3.149   2.635  -5.827  0.00  0.00     0.040 A 
BRANCH  14  17
ATOM     17  O   UNL d   1      -0.436   2.171  -5.353  0.00  0.00    -0.359 OA
ATOM     18  H   UNL d   1      -0.477   1.707  -6.206  0.00  0.00     0.217 HD
ENDBRANCH  14  17
ENDBRANCH   9  10
ENDBRANCH   6   9
BRANCH   3  19
ATOM     19  C   UNL d   1       5.995   6.816  -0.008  0.00  0.00     0.085 C 
BRANCH  19  20
ATOM     20  CA  UNL d   1       4.806   7.713   0.369  0.00  0.00     0.318 C 
BRANCH  20  21
ATOM     21  N   UNL d   1       5.204   8.645   1.421  0.00  0.00     0.093 N 
ATOM     22  H1  UNL d   1       5.012   8.234   2.333  0.00  0.00     0.314 HD
ATOM     23  H2  UNL d   1       4.631   9.488   1.371  0.00  0.00     0.314 HD
ENDBRANCH  20  21
BRANCH  20  24
ATOM     24  C   UNL d   1       3.637   6.913   0.915  0.00  0.00     0.174 C 
ATOM     25  OXT UNL d   1       2.527   6.855   0.402  0.00  0.00    -0.648 OA
BRANCH  24  26
ATOM     26  O   UNL d   1       3.964   6.222   2.039  0.00  0.00    -0.775 OA
ATOM     27  H   UNL d   1       3.217   6.181   2.672  0.00  0.00     0.167 HD
ENDBRANCH  24  26
ENDBRANCH  20  24
ENDBRANCH  19  20
ENDBRANCH   3  19
TORSDOF 8
ENDMDL
MODEL 6
REMARK VINA RESULT:       0.0     12.508     13.816
REMARK  8 active torsions:
REMARK  status: ('A' for Active; 'I' for Inactive)
REMARK    1  A    between atoms: O_4  and  C_14 
REMARK    2  A    between atoms: O_4  and  C_18 
REMARK    3  A    between atoms: O_5  and  C_17 
REMARK    4  A    between atoms: O_7  and  C_23 
REMARK    5  A    between atoms: N_8  and  CA_10 
REMARK    6  A    between atoms: C_9  and  CA_10 
REMARK    7  A    between atoms: C_9  and  C_11 
REMARK    8  A    between atoms: CA_10  and  C_17 
ROOT
ATOM      1  I   UNL d   1     -11.066  -8.802  12.066  0.00  0.00    -0.042 I 
ATOM      2  I   UNL d   1      -7.796  -6.111   7.671  0.00  0.00    -0.042 I 
ATOM      3  C   UNL d   1     -10.406  -4.716  10.823  0.00  0.00    -0.053 A 
ATOM      4  C   UNL d   1      -9.543  -4.789   9.742  0.00  0.00     0.028 A 
ATOM      5  C   UNL d   1     -10.837  -5.855  11.482  0.00  0.00     0.028 A 
ATOM      6  C   UNL d   1      -9.525  -7.196   9.959  0.00  0.00     0.109 A 
ATOM      7  C   UNL d   1     -10.394  -7.104  11.046  0.00  0.00     0.042 A 
ATOM      8  C   UNL d   1      -9.100  -6.039   9.307  0.00  0.00     0.042 A 
ENDROOT
BRANCH   6   9
ATOM      9  O   UNL d   1      -9.090  -8.419   9.534  0.00  0.00    -0.308 OA
BRANCH   9  10
ATOM     10  C   UNL d   1      -9.731  -8.982   8.445  0.00  0.00     0.077 A 
ATOM     11  C   UNL d   1     -11.016  -8.573   8.131  0.00  0.00     0.058 A 
ATOM     12  C   UNL d   1     -11.662  -9.141   7.034  0.00  0.00     0.042 A 
ATOM     13  I   UNL d   1     -13.601  -8.508   6.580  0.00  0.00    -0.042 I 
ATOM     14  C   UNL d   1     -11.013 -10.109   6.267  0.00  0.00     0.082 A 
ATOM     15  C   UNL d   1      -9.719 -10.509   6.598  0.00  0.00     0.040 A 
ATOM     16  C   UNL d   1      -9.073  -9.940   7.696  0.00  0.00     0.040 A 
BRANCH  14  17
ATOM     17  O   UNL d   1     -11.609 -10.689   5.186  0.00  0.00    -0.359 OA
ATOM     18  H   UNL d   1     -11.028 -11.384   4.833  0.00  0.00     0.217 HD
ENDBRANCH  14  17
ENDBRANCH   9  10
ENDBRANCH   6   9
BRANCH   3  19
ATOM     19  C   UNL d   1     -10.886  -3.363  11.294  0.00  0.00     0.085 C 
BRANCH  19  20
ATOM     20  CA  UNL d   1     -11.622  -2.575  10.200  0.00  0.00     0.318 C 
BRANCH  20  21
ATOM     21  N   UNL d   1     -11.976  -1.248  10.698  0.00  0.00     0.093 N 
ATOM     22  H1  UNL d   1     -12.562  -0.771  10.015  0.00  0.00     0.314 HD
ATOM     23  H2  UNL d   1     -11.135  -0.677  10.789  0.00  0.00     0.314 HD
ENDBRANCH  20  21
BRANCH  20  24
ATOM     24  C   UNL d   1     -12.921  -3.246   9.788  0.00  0.00     0.174 C 
ATOM     25  OXT UNL d   1     -13.884  -3.418  10.525  0.00  0.00    -0.648 OA
BRANCH  24  26
ATOM     26  O   UNL d   1     -12.920  -3.614   8.480  0.00  0.00    -0.775 OA
ATOM     27  H   UNL d   1     -13.483  -3.024   7.935  0.00  0.00     0.167 HD
ENDBRANCH  24  26
ENDBRANCH  20  24
ENDBRANCH  19  20
ENDBRANCH   3  19
TORSDOF 8
ENDMDL
MODEL 7
REMARK VINA RESULT:       0.0     19.963     21.627
REMARK  8 active torsions:
REMARK  status: ('A' for Active; 'I' for Inactive)
REMARK    1  A    between atoms: O_4  and  C_14 
REMARK    2  A    between atoms: O_4  and  C_18 
REMARK    3  A    between atoms: O_5  and  C_17 
REMARK    4  A    between atoms: O_7  and  C_23 
REMARK    5  A    between atoms: N_8  and  CA_10 
REMARK    6  A    between atoms: C_9  and  CA_10 
REMARK    7  A    between atoms: C_9  and  C_11 
REMARK    8  A    between atoms: CA_10  and  C_17 
ROOT
ATOM      1  I   UNL d   1     -13.193  -8.524  -2.097  0.00  0.00    -0.042 I 
ATOM      2  I   UNL d   1     -18.244 -11.499  -0.398  0.00  0.00    -0.042 I 
ATOM      3  C   UNL d   1     -15.687 -11.569  -3.883  0.00  0.00    -0.053 A 
ATOM      4  C   UNL d   1     -16.694 -11.813  -2.963  0.00  0.00     0.028 A 
ATOM      5  C   UNL d   1     -14.694 -10.635  -3.636  0.00  0.00     0.028 A 
ATOM      6  C   UNL d   1     -15.716 -10.159  -1.499  0.00  0.00     0.109 A 
ATOM      7  C   UNL d   1     -14.709  -9.925  -2.436  0.00  0.00     0.042 A 
ATOM      8  C   UNL d   1     -16.708 -11.102  -1.763  0.00  0.00     0.042 A 
ENDROOT
BRANCH   6   9
ATOM      9  O   UNL d   1     -15.730  -9.464  -0.323  0.00  0.00    -0.308 OA
BRANCH   9  10
ATOM     10  C   UNL d   1     -16.577  -8.375  -0.234  0.00  0.00     0.077 A 
ATOM     11  C   UNL d   1     -16.993  -7.745  -1.395  0.00  0.00     0.058 A 
ATOM     12  C   UNL d   1     -17.847  -6.647  -1.305  0.00  0.00     0.042 A 
ATOM     13  I   UNL d   1     -18.461  -5.713  -3.071  0.00  0.00    -0.042 I 
ATOM     14  C   UNL d   1     -18.273  -6.195  -0.055  0.00  0.00     0.082 A 
ATOM     15  C   UNL d   1     -17.844  -6.841   1.103  0.00  0.00     0.040 A 
ATOM     16  C   UNL d   1     -16.989  -7.940   1.013  0.00  0.00     0.040 A 
BRANCH  14  17
ATOM     17  O   UNL d   1     -19.108  -5.125   0.076  0.00  0.00    -0.359 OA
ATOM     18  H   UNL d   1     -19.068  -4.585  -0.732  0.00  0.00     0.217 HD
ENDBRANCH  14  17
ENDBRANCH   9  10
ENDBRANCH   6   9
BRANCH   3  19
ATOM     19  C   UNL d   1     -15.671 -12.338  -5.183  0.00  0.00     0.085 C 
BRANCH  19  20
ATOM     20  CA  UNL d   1     -16.942 -12.124  -6.020  0.00  0.00     0.318 C 
BRANCH  20  21
ATOM     21  N   UNL d   1     -16.894 -12.962  -7.216  0.00  0.00     0.093 N 
ATOM     22  H1  UNL d   1     -17.810 -12.974  -7.662  0.00  0.00     0.314 HD
ATOM     23  H2  UNL d   1     -16.701 -13.929  -6.953  0.00  0.00     0.314 HD
ENDBRANCH  20  21
BRANCH  20  24
ATOM     24  C   UNL d   1     -17.076 -10.690  -6.499  0.00  0.00     0.174 C 
ATOM     25  OXT UNL d   1     -17.979  -9.927  -6.180  0.00  0.00    -0.648 OA
BRANCH  24  26
ATOM     26  O   UNL d   1     -16.050 -10.317  -7.308  0.00  0.00    -0.775 OA
ATOM     27  H   UNL d   1     -15.316 -10.967  -7.288  0.00  0.00     0.167 HD
ENDBRANCH  24  26
ENDBRANCH  20  24
ENDBRANCH  19  20
ENDBRANCH   3  19
TORSDOF 8
ENDMDL
MODEL 8
REMARK VINA RESULT:       0.0     16.201     18.869
REMARK  8 active torsions:
REMARK  status: ('A' for Active; 'I' for Inactive)
REMARK    1  A    between atoms: O_4  and  C_14 
REMARK    2  A    between atoms: O_4  and  C_18 
REMARK    3  A    between atoms: O_5  and  C_17 
REMARK    4  A    between atoms: O_7  and  C_23 
REMARK    5  A    between atoms: N_8  and  CA_10 
REMARK    6  A    between atoms: C_9  and  CA_10 
REMARK    7  A    between atoms: C_9  and  C_11 
REMARK    8  A    between atoms: CA_10  and  C_17 
ROOT
ATOM      1  I   UNL d   1     -14.577  -0.256   2.417  0.00  0.00    -0.042 I 
ATOM      2  I   UNL d   1     -14.849   0.517  -3.631  0.00  0.00    -0.042 I 
ATOM      3  C   UNL d   1     -11.842   1.194  -0.600  0.00  0.00    -0.053 A 
ATOM      4  C   UNL d   1     -12.532   1.111  -1.799  0.00  0.00     0.028 A 
ATOM      5  C   UNL d   1     -12.424   0.805   0.596  0.00  0.00     0.028 A 
ATOM      6  C   UNL d   1     -14.440   0.233  -0.606  0.00  0.00     0.109 A 
ATOM      7  C   UNL d   1     -13.732   0.322   0.592  0.00  0.00     0.042 A 
ATOM      8  C   UNL d   1     -13.840   0.627  -1.801  0.00  0.00     0.042 A 
ENDROOT
BRANCH   6   9
ATOM      9  O   UNL d   1     -15.721  -0.242  -0.609  0.00  0.00    -0.308 OA
BRANCH   9  10
ATOM     10  C   UNL d   1     -16.746   0.686  -0.638  0.00  0.00     0.077 A 
ATOM     11  C   UNL d   1     -16.502   1.977  -0.201  0.00  0.00     0.058 A 
ATOM     12  C   UNL d   1     -17.536   2.912  -0.230  0.00  0.00     0.042 A 
ATOM     13  I   UNL d   1     -17.144   4.854   0.435  0.00  0.00    -0.042 I 
ATOM     14  C   UNL d   1     -18.798   2.542  -0.696  0.00  0.00     0.082 A 
ATOM     15  C   UNL d   1     -19.026   1.237  -1.133  0.00  0.00     0.040 A 
ATOM     16  C   UNL d   1     -17.991   0.302  -1.103  0.00  0.00     0.040 A 
BRANCH  14  17
ATOM     17  O   UNL d   1     -19.836   3.426  -0.741  0.00  0.00    -0.359 OA
ATOM     18  H   UNL d   1     -19.752   3.978  -1.537  0.00  0.00     0.217 HD
ENDBRANCH  14  17
ENDBRANCH   9  10
ENDBRANCH   6   9
BRANCH   3  19
ATOM     19  C   UNL d   1     -10.425   1.717  -0.597  0.00  0.00     0.085 C 
BRANCH  19  20
ATOM     20  CA  UNL d   1     -10.316   3.149  -1.143  0.00  0.00     0.318 C 
BRANCH  20  21
ATOM     21  N   UNL d   1      -8.913   3.556  -1.189  0.00  0.00     0.093 N 
ATOM     22  H1  UNL d   1      -8.504   3.273  -2.078  0.00  0.00     0.314 HD
ATOM     23  H2  UNL d   1      -8.385   3.058  -0.471  0.00  0.00     0.314 HD
ENDBRANCH  20  21
BRANCH  20  24
ATOM     24  C   UNL d   1     -11.031   4.154  -0.257  0.00  0.00     0.174 C 
ATOM     25  OXT UNL d   1     -11.972   4.854  -0.611  0.00  0.00    -0.648 OA
BRANCH  24  26
ATOM     26  O   UNL d   1     -10.534   4.175   1.007  0.00  0.00    -0.775 OA
ATOM     27  H   UNL d   1      -9.590   3.907   1.033  0.00  0.00     0.167 HD
ENDBRANCH  24  26
ENDBRANCH  20  24
ENDBRANCH  19  20
ENDBRANCH   3  19
TORSDOF 8
ENDMDL
MODEL 9
REMARK VINA RESULT:       0.0      4.456      5.241
REMARK  8 active torsions:
REMARK  status: ('A' for Active; 'I' for Inactive)
REMARK    1  A    between atoms: O_4  and  C_14 
REMARK    2  A    between atoms: O_4  and  C_18 
REMARK    3  A    between atoms: O_5  and  C_17 
REMARK    4  A    between atoms: O_7  and  C_23 
REMARK    5  A    between atoms: N_8  and  CA_10 
REMARK    6  A    between atoms: C_9  and  CA_10 
REMARK    7  A    between atoms: C_9  and  C_11 
REMARK    8  A    between atoms: CA_10  and  C_17 
ROOT
ATOM      1  I   UNL d   1      -0.141  -8.109  -0.197  0.00  0.00    -0.042 I 
ATOM      2  I   UNL d   1       4.578  -6.252   3.199  0.00  0.00    -0.042 I 
ATOM      3  C   UNL d   1       1.268  -4.282   1.235  0.00  0.00    -0.053 A 
ATOM      4  C   UNL d   1       2.413  -4.556   1.966  0.00  0.00     0.028 A 
ATOM      5  C   UNL d   1       0.545  -5.291   0.622  0.00  0.00     0.028 A 
ATOM      6  C   UNL d   1       2.128  -6.904   1.475  0.00  0.00     0.109 A 
ATOM      7  C   UNL d   1       0.978  -6.612   0.742  0.00  0.00     0.042 A 
ATOM      8  C   UNL d   1       2.846  -5.877   2.086  0.00  0.00     0.042 A 
ENDROOT
BRANCH   6   9
ATOM      9  O   UNL d   1       2.552  -8.198   1.594  0.00  0.00    -0.308 OA
BRANCH   9  10
ATOM     10  C   UNL d   1       3.572  -8.615   0.759  0.00  0.00     0.077 A 
ATOM     11  C   UNL d   1       3.801  -7.933  -0.424  0.00  0.00     0.058 A 
ATOM     12  C   UNL d   1       4.830  -8.354  -1.265  0.00  0.00     0.042 A 
ATOM     13  I   UNL d   1       5.155  -7.308  -3.045  0.00  0.00    -0.042 I 
ATOM     14  C   UNL d   1       5.616  -9.451  -0.910  0.00  0.00     0.082 A 
ATOM     15  C   UNL d   1       5.372 -10.126   0.285  0.00  0.00     0.040 A 
ATOM     16  C   UNL d   1       4.342  -9.704   1.126  0.00  0.00     0.040 A 
BRANCH  14  17
ATOM     17  O   UNL d   1       6.632  -9.895  -1.704  0.00  0.00    -0.359 OA
ATOM     18  H   UNL d   1       7.483  -9.642  -1.308  0.00  0.00     0.217 HD
ENDBRANCH  14  17
ENDBRANCH   9  10
ENDBRANCH   6   9
BRANCH   3  19
ATOM     19  C   UNL d   1       0.800  -2.852   1.105  0.00  0.00     0.085 C 
BRANCH  19  20
ATOM     20  CA  UNL d   1       1.837  -1.942   0.428  0.00  0.00     0.318 C 
BRANCH  20  21
ATOM     21  N   UNL d   1       1.349  -0.565   0.410  0.00  0.00     0.093 N 
ATOM     22  H1  UNL d   1       0.432  -0.520   0.851  0.00  0.00     0.314 HD
ATOM     23  H2  UNL d   1       1.208  -0.261  -0.554  0.00  0.00     0.314 HD
ENDBRANCH  20  21
BRANCH  20  24
ATOM     24  C   UNL d   1       2.086  -2.335  -1.017  0.00  0.00     0.174 C 
ATOM     25  OXT UNL d   1       1.244  -2.301  -1.906  0.00  0.00    -0.648 OA
BRANCH  24  26
ATOM     26  O   UNL d   1       3.375  -2.704  -1.238  0.00  0.00    -0.775 OA
ATOM     27  H   UNL d   1       3.973  -1.928  -1.284  0.00  0.00     0.167 HD
ENDBRANCH  24  26
ENDBRANCH  20  24
ENDBRANCH  19  20
ENDBRANCH   3  19
TORSDOF 8
ENDMDL
