MODEL 1
REMARK VINA RESULT:      -0.0      0.000      0.000
REMARK  1 active torsions:
REMARK  status: ('A' for Active; 'I' for Inactive)
REMARK    1  A    between atoms: O_1  and  C_13 
ROOT
ATOM      1  O   UNL d   1      18.763  -1.917  14.666  0.00  0.00    -0.298 OA
ATOM      2  C   UNL d   1      16.889   3.888  16.623  0.00  0.00    -0.005 C 
ATOM      3  C   UNL d   1      17.054   2.567  17.438  0.00  0.00    -0.002 C 
ATOM      4  C   UNL d   1      16.143   4.907  17.491  0.00  0.00     0.001 C 
ATOM      5  C   UNL d   1      16.885   5.232  18.802  0.00  0.00    -0.014 C 
ATOM      6  C   UNL d   1      17.765   1.434  16.607  0.00  0.00    -0.036 C 
ATOM      7  C   UNL d   1      16.992   1.243  15.263  0.00  0.00     0.001 C 
ATOM      8  C   UNL d   1      17.684   2.822  18.836  0.00  0.00     0.007 C 
ATOM      9  C   UNL d   1      16.982   3.941  19.626  0.00  0.00     0.012 C 
ATOM     10  C   UNL d   1      16.143   3.627  15.308  0.00  0.00     0.006 C 
ATOM     11  C   UNL d   1      15.821   6.284  16.914  0.00  0.00     0.008 C 
ATOM     12  C   UNL d   1      15.927   6.293  19.376  0.00  0.00     0.126 C 
ATOM     13  C   UNL d   1      16.821   2.547  14.474  0.00  0.00     0.006 C 
ATOM     14  C   UNL d   1      15.546   7.152  18.155  0.00  0.00     0.033 C 
ATOM     15  C   UNL d   1      17.722   0.089  17.401  0.00  0.00     0.017 C 
ATOM     16  C   UNL d   1      18.301   5.833  18.611  0.00  0.00     0.018 C 
ATOM     17  C   UNL d   1      19.252   1.793  16.348  0.00  0.00     0.016 C 
ATOM     18  C   UNL d   1      17.629   0.169  14.367  0.00  0.00     0.083 C 
ATOM     19  C   UNL d   1      17.511  -1.172  16.563  0.00  0.00     0.079 C 
ATOM     20  C   UNL d   1      18.057  -1.040  15.166  0.00  0.00     0.127 C 
ENDROOT
BRANCH  12  21
ATOM     21  O   UNL d   1      16.514   7.070  20.402  0.00  0.00    -0.395 OA
ATOM     22  H   UNL d   1      16.459   8.009  20.158  0.00  0.00     0.210 HD
ENDBRANCH  12  21
TORSDOF 1
ENDMDL
MODEL 2
REMARK VINA RESULT:       0.0     24.166     26.832
REMARK  1 active torsions:
REMARK  status: ('A' for Active; 'I' for Inactive)
REMARK    1  A    between atoms: O_1  and  C_13 
ROOT
ATOM      1  O   UNL d   1       8.464  -8.612  -3.058  0.00  0.00    -0.298 OA
ATOM      2  C   UNL d   1      12.134 -13.833  -3.618  0.00  0.00    -0.005 C 
ATOM      3  C   UNL d   1      12.302 -12.591  -2.687  0.00  0.00    -0.002 C 
ATOM      4  C   UNL d   1      13.426 -14.655  -3.573  0.00  0.00     0.001 C 
ATOM      5  C   UNL d   1      13.770 -15.152  -2.156  0.00  0.00    -0.014 C 
ATOM      6  C   UNL d   1      11.040 -11.650  -2.707  0.00  0.00    -0.036 C 
ATOM      7  C   UNL d   1      10.721 -11.276  -4.190  0.00  0.00     0.001 C 
ATOM      8  C   UNL d   1      12.774 -12.993  -1.261  0.00  0.00     0.007 C 
ATOM      9  C   UNL d   1      14.001 -13.923  -1.265  0.00  0.00     0.012 C 
ATOM     10  C   UNL d   1      11.801 -13.398  -5.051  0.00  0.00     0.006 C 
ATOM     11  C   UNL d   1      13.537 -15.916  -4.428  0.00  0.00     0.008 C 
ATOM     12  C   UNL d   1      15.039 -15.963  -2.475  0.00  0.00     0.126 C 
ATOM     13  C   UNL d   1      10.570 -12.501  -5.102  0.00  0.00     0.006 C 
ATOM     14  C   UNL d   1      14.691 -16.704  -3.782  0.00  0.00     0.033 C 
ATOM     15  C   UNL d   1      11.347 -10.336  -1.918  0.00  0.00     0.017 C 
ATOM     16  C   UNL d   1      12.695 -16.064  -1.512  0.00  0.00     0.018 C 
ATOM     17  C   UNL d   1       9.827 -12.344  -2.034  0.00  0.00     0.016 C 
ATOM     18  C   UNL d   1       9.483 -10.375  -4.315  0.00  0.00     0.083 C 
ATOM     19  C   UNL d   1      10.746  -9.056  -2.499  0.00  0.00     0.079 C 
ATOM     20  C   UNL d   1       9.464  -9.303  -3.250  0.00  0.00     0.127 C 
ENDROOT
BRANCH  12  21
ATOM     21  O   UNL d   1      15.395 -16.862  -1.442  0.00  0.00    -0.395 OA
ATOM     22  H   UNL d   1      14.588 -17.269  -1.086  0.00  0.00     0.210 HD
ENDBRANCH  12  21
TORSDOF 1
ENDMDL
MODEL 3
REMARK VINA RESULT:       0.0     23.582     25.723
REMARK  1 active torsions:
REMARK  status: ('A' for Active; 'I' for Inactive)
REMARK    1  A    between atoms: O_1  and  C_13 
ROOT
ATOM      1  O   UNL d   1       7.821  -6.617  -4.089  0.00  0.00    -0.298 OA
ATOM      2  C   UNL d   1      11.314 -11.929  -3.307  0.00  0.00    -0.005 C 
ATOM      3  C   UNL d   1      11.297 -10.615  -2.464  0.00  0.00    -0.002 C 
ATOM      4  C   UNL d   1      12.523 -12.767  -2.878  0.00  0.00     0.001 C 
ATOM      5  C   UNL d   1      12.491 -13.145  -1.385  0.00  0.00    -0.014 C 
ATOM      6  C   UNL d   1      10.115  -9.657  -2.871  0.00  0.00    -0.036 C 
ATOM      7  C   UNL d   1      10.183  -9.407  -4.411  0.00  0.00     0.001 C 
ATOM      8  C   UNL d   1      11.388 -10.901  -0.939  0.00  0.00     0.007 C 
ATOM      9  C   UNL d   1      12.543 -11.849  -0.565  0.00  0.00     0.012 C 
ATOM     10  C   UNL d   1      11.360 -11.613  -4.807  0.00  0.00     0.006 C 
ATOM     11  C   UNL d   1      12.793 -14.098  -3.577  0.00  0.00     0.008 C 
ATOM     12  C   UNL d   1      13.767 -14.003  -1.315  0.00  0.00     0.126 C 
ATOM     13  C   UNL d   1      10.214 -10.703  -5.232  0.00  0.00     0.006 C 
ATOM     14  C   UNL d   1      13.722 -14.847  -2.604  0.00  0.00     0.033 C 
ATOM     15  C   UNL d   1      10.269  -8.286  -2.137  0.00  0.00     0.017 C 
ATOM     16  C   UNL d   1      11.256 -13.980  -0.957  0.00  0.00     0.018 C 
ATOM     17  C   UNL d   1       8.748 -10.269  -2.467  0.00  0.00     0.016 C 
ATOM     18  C   UNL d   1       9.049  -8.498  -4.910  0.00  0.00     0.083 C 
ATOM     19  C   UNL d   1       9.877  -7.050  -2.948  0.00  0.00     0.079 C 
ATOM     20  C   UNL d   1       8.811  -7.339  -3.971  0.00  0.00     0.127 C 
ENDROOT
BRANCH  12  21
ATOM     21  O   UNL d   1      13.825 -14.816  -0.158  0.00  0.00    -0.395 OA
ATOM     22  H   UNL d   1      13.505 -15.705  -0.381  0.00  0.00     0.210 HD
ENDBRANCH  12  21
TORSDOF 1
ENDMDL
MODEL 4
REMARK VINA RESULT:       0.0     22.693     24.908
REMARK  1 active torsions:
REMARK  status: ('A' for Active; 'I' for Inactive)
REMARK    1  A    between atoms: O_1  and  C_13 
ROOT
ATOM      1  O   UNL d   1       7.295  -7.774  -1.528  0.00  0.00    -0.298 OA
ATOM      2  C   UNL d   1      12.259 -11.630  -2.766  0.00  0.00    -0.005 C 
ATOM      3  C   UNL d   1      12.224 -10.258  -2.022  0.00  0.00    -0.002 C 
ATOM      4  C   UNL d   1      13.720 -11.995  -3.047  0.00  0.00     0.001 C 
ATOM      5  C   UNL d   1      14.565 -12.114  -1.764  0.00  0.00    -0.014 C 
ATOM      6  C   UNL d   1      10.756  -9.768  -1.736  0.00  0.00    -0.036 C 
ATOM      7  C   UNL d   1       9.959  -9.767  -3.079  0.00  0.00     0.001 C 
ATOM      8  C   UNL d   1      13.153 -10.248  -0.776  0.00  0.00     0.007 C 
ATOM      9  C   UNL d   1      14.580 -10.742  -1.076  0.00  0.00     0.012 C 
ATOM     10  C   UNL d   1      11.442 -11.568  -4.063  0.00  0.00     0.006 C 
ATOM     11  C   UNL d   1      14.034 -13.287  -3.800  0.00  0.00     0.008 C 
ATOM     12  C   UNL d   1      15.908 -12.538  -2.386  0.00  0.00     0.126 C 
ATOM     13  C   UNL d   1      10.009 -11.114  -3.811  0.00  0.00     0.006 C 
ATOM     14  C   UNL d   1      15.512 -13.560  -3.471  0.00  0.00     0.033 C 
ATOM     15  C   UNL d   1      10.784  -8.309  -1.174  0.00  0.00     0.017 C 
ATOM     16  C   UNL d   1      14.071 -13.190  -0.763  0.00  0.00     0.018 C 
ATOM     17  C   UNL d   1      10.069 -10.676  -0.682  0.00  0.00     0.016 C 
ATOM     18  C   UNL d   1       8.499  -9.324  -2.896  0.00  0.00     0.083 C 
ATOM     19  C   UNL d   1       9.653  -7.394  -1.642  0.00  0.00     0.079 C 
ATOM     20  C   UNL d   1       8.387  -8.146  -1.957  0.00  0.00     0.127 C 
ENDROOT
BRANCH  12  21
ATOM     21  O   UNL d   1      16.803 -13.096  -1.442  0.00  0.00    -0.395 OA
ATOM     22  H   UNL d   1      16.484 -12.892  -0.548  0.00  0.00     0.210 HD
ENDBRANCH  12  21
TORSDOF 1
ENDMDL
MODEL 5
REMARK VINA RESULT:       0.0     21.715     24.240
REMARK  1 active torsions:
REMARK  status: ('A' for Active; 'I' for Inactive)
REMARK    1  A    between atoms: O_1  and  C_13 
ROOT
ATOM      1  O   UNL d   1      10.587  -6.520  -1.845  0.00  0.00    -0.298 OA
ATOM      2  C   UNL d   1      13.611 -12.167  -1.788  0.00  0.00    -0.005 C 
ATOM      3  C   UNL d   1      13.991 -10.826  -1.084  0.00  0.00    -0.002 C 
ATOM      4  C   UNL d   1      14.806 -13.122  -1.695  0.00  0.00     0.001 C 
ATOM      5  C   UNL d   1      15.212 -13.432  -0.241  0.00  0.00    -0.014 C 
ATOM      6  C   UNL d   1      12.841  -9.755  -1.174  0.00  0.00    -0.036 C 
ATOM      7  C   UNL d   1      12.440  -9.578  -2.674  0.00  0.00     0.001 C 
ATOM      8  C   UNL d   1      14.534 -11.058   0.354  0.00  0.00     0.007 C 
ATOM      9  C   UNL d   1      15.649 -12.118   0.421  0.00  0.00     0.012 C 
ATOM     10  C   UNL d   1      13.208 -11.922  -3.247  0.00  0.00     0.006 C 
ATOM     11  C   UNL d   1      14.708 -14.504  -2.338  0.00  0.00     0.008 C 
ATOM     12  C   UNL d   1      16.355 -14.430  -0.507  0.00  0.00     0.126 C 
ATOM     13  C   UNL d   1      12.082 -10.902  -3.363  0.00  0.00     0.006 C 
ATOM     14  C   UNL d   1      15.820 -15.315  -1.650  0.00  0.00     0.033 C 
ATOM     15  C   UNL d   1      13.353  -8.382  -0.632  0.00  0.00     0.017 C 
ATOM     16  C   UNL d   1      14.103 -14.098   0.612  0.00  0.00     0.018 C 
ATOM     17  C   UNL d   1      11.620 -10.185  -0.319  0.00  0.00     0.016 C 
ATOM     18  C   UNL d   1      11.301  -8.564  -2.862  0.00  0.00     0.083 C 
ATOM     19  C   UNL d   1      12.847  -7.144  -1.372  0.00  0.00     0.079 C 
ATOM     20  C   UNL d   1      11.488  -7.348  -1.987  0.00  0.00     0.127 C 
ENDROOT
BRANCH  12  21
ATOM     21  O   UNL d   1      16.697 -15.195   0.633  0.00  0.00    -0.395 OA
ATOM     22  H   UNL d   1      15.970 -15.806   0.832  0.00  0.00     0.210 HD
ENDBRANCH  12  21
TORSDOF 1
ENDMDL
MODEL 6
REMARK VINA RESULT:       0.0     21.378     23.255
REMARK  1 active torsions:
REMARK  status: ('A' for Active; 'I' for Inactive)
REMARK    1  A    between atoms: O_1  and  C_13 
ROOT
ATOM      1  O   UNL d   1       1.941 -12.549   5.118  0.00  0.00    -0.298 OA
ATOM      2  C   UNL d   1       0.445  -6.482   3.709  0.00  0.00    -0.005 C 
ATOM      3  C   UNL d   1       0.166  -7.301   5.008  0.00  0.00    -0.002 C 
ATOM      4  C   UNL d   1      -0.366  -5.183   3.767  0.00  0.00     0.001 C 
ATOM      5  C   UNL d   1      -0.006  -4.308   4.983  0.00  0.00    -0.014 C 
ATOM      6  C   UNL d   1       0.916  -8.685   5.018  0.00  0.00    -0.036 C 
ATOM      7  C   UNL d   1       0.557  -9.456   3.707  0.00  0.00     0.001 C 
ATOM      8  C   UNL d   1       0.384  -6.450   6.290  0.00  0.00     0.007 C 
ATOM      9  C   UNL d   1      -0.348  -5.096   6.255  0.00  0.00     0.012 C 
ATOM     10  C   UNL d   1       0.092  -7.302   2.462  0.00  0.00     0.006 C 
ATOM     11  C   UNL d   1      -0.297  -4.208   2.594  0.00  0.00     0.008 C 
ATOM     12  C   UNL d   1      -0.925  -3.103   4.706  0.00  0.00     0.126 C 
ATOM     13  C   UNL d   1       0.821  -8.640   2.435  0.00  0.00     0.006 C 
ATOM     14  C   UNL d   1      -0.797  -2.878   3.186  0.00  0.00     0.033 C 
ATOM     15  C   UNL d   1       0.443  -9.536   6.240  0.00  0.00     0.017 C 
ATOM     16  C   UNL d   1       1.475  -3.854   5.037  0.00  0.00     0.018 C 
ATOM     17  C   UNL d   1       2.449  -8.479   5.139  0.00  0.00     0.016 C 
ATOM     18  C   UNL d   1       1.265 -10.817   3.613  0.00  0.00     0.083 C 
ATOM     19  C   UNL d   1       0.307 -11.038   5.993  0.00  0.00     0.079 C 
ATOM     20  C   UNL d   1       1.255 -11.543   4.937  0.00  0.00     0.127 C 
ENDROOT
BRANCH  12  21
ATOM     21  O   UNL d   1      -0.560  -1.949   5.440  0.00  0.00    -0.395 OA
ATOM     22  H   UNL d   1      -1.349  -1.593   5.880  0.00  0.00     0.210 HD
ENDBRANCH  12  21
TORSDOF 1
ENDMDL
MODEL 7
REMARK VINA RESULT:       0.0     19.154     22.073
REMARK  1 active torsions:
REMARK  status: ('A' for Active; 'I' for Inactive)
REMARK    1  A    between atoms: O_1  and  C_13 
ROOT
ATOM      1  O   UNL d   1       4.589 -17.220   4.294  0.00  0.00    -0.298 OA
ATOM      2  C   UNL d   1       6.362 -11.065   4.349  0.00  0.00    -0.005 C 
ATOM      3  C   UNL d   1       6.063 -12.026   5.542  0.00  0.00    -0.002 C 
ATOM      4  C   UNL d   1       6.460  -9.634   4.888  0.00  0.00     0.001 C 
ATOM      5  C   UNL d   1       7.573  -9.466   5.941  0.00  0.00    -0.014 C 
ATOM      6  C   UNL d   1       5.889 -13.521   5.079  0.00  0.00    -0.036 C 
ATOM      7  C   UNL d   1       4.808 -13.572   3.953  0.00  0.00     0.001 C 
ATOM      8  C   UNL d   1       7.070 -11.834   6.710  0.00  0.00     0.007 C 
ATOM      9  C   UNL d   1       7.233 -10.364   7.139  0.00  0.00     0.012 C 
ATOM     10  C   UNL d   1       5.277 -11.179   3.272  0.00  0.00     0.006 C 
ATOM     11  C   UNL d   1       6.717  -8.485   3.915  0.00  0.00     0.008 C 
ATOM     12  C   UNL d   1       7.439  -7.956   6.210  0.00  0.00     0.126 C 
ATOM     13  C   UNL d   1       5.101 -12.614   2.790  0.00  0.00     0.006 C 
ATOM     14  C   UNL d   1       7.228  -7.344   4.811  0.00  0.00     0.033 C 
ATOM     15  C   UNL d   1       5.399 -14.393   6.279  0.00  0.00     0.017 C 
ATOM     16  C   UNL d   1       8.999  -9.798   5.432  0.00  0.00     0.018 C 
ATOM     17  C   UNL d   1       7.239 -14.102   4.581  0.00  0.00     0.016 C 
ATOM     18  C   UNL d   1       4.585 -14.994   3.416  0.00  0.00     0.083 C 
ATOM     19  C   UNL d   1       4.393 -15.492   5.935  0.00  0.00     0.079 C 
ATOM     20  C   UNL d   1       4.556 -16.012   4.531  0.00  0.00     0.127 C 
ENDROOT
BRANCH  12  21
ATOM     21  O   UNL d   1       8.571  -7.407   6.858  0.00  0.00    -0.395 OA
ATOM     22  H   UNL d   1       8.585  -6.447   6.710  0.00  0.00     0.210 HD
ENDBRANCH  12  21
TORSDOF 1
ENDMDL
MODEL 8
REMARK VINA RESULT:       0.0     22.879     25.375
REMARK  1 active torsions:
REMARK  status: ('A' for Active; 'I' for Inactive)
REMARK    1  A    between atoms: O_1  and  C_13 
ROOT
ATOM      1  O   UNL d   1       7.295  -7.774  -1.528  0.00  0.00    -0.298 OA
ATOM      2  C   UNL d   1      10.572 -13.278  -1.599  0.00  0.00    -0.005 C 
ATOM      3  C   UNL d   1      10.847 -11.965  -0.800  0.00  0.00    -0.002 C 
ATOM      4  C   UNL d   1      11.803 -14.184  -1.486  0.00  0.00     0.001 C 
ATOM      5  C   UNL d   1      12.137 -14.560  -0.030  0.00  0.00    -0.014 C 
ATOM      6  C   UNL d   1       9.655 -10.941  -0.901  0.00  0.00    -0.036 C 
ATOM      7  C   UNL d   1       9.335 -10.695  -2.410  0.00  0.00     0.001 C 
ATOM      8  C   UNL d   1      11.315 -12.256   0.654  0.00  0.00     0.007 C 
ATOM      9  C   UNL d   1      12.472 -13.269   0.730  0.00  0.00     0.012 C 
ATOM     10  C   UNL d   1      10.245 -12.965  -3.064  0.00  0.00     0.006 C 
ATOM     11  C   UNL d   1      11.808 -15.528  -2.210  0.00  0.00     0.008 C 
ATOM     12  C   UNL d   1      13.339 -15.490  -0.280  0.00  0.00     0.126 C 
ATOM     13  C   UNL d   1       9.081 -11.990  -3.192  0.00  0.00     0.006 C 
ATOM     14  C   UNL d   1      12.915 -16.329  -1.501  0.00  0.00     0.033 C 
ATOM     15  C   UNL d   1      10.069  -9.581  -0.252  0.00  0.00     0.017 C 
ATOM     16  C   UNL d   1      11.012 -15.323   0.715  0.00  0.00     0.018 C 
ATOM     17  C   UNL d   1       8.407 -11.474  -0.148  0.00  0.00     0.016 C 
ATOM     18  C   UNL d   1       8.163  -9.723  -2.611  0.00  0.00     0.083 C 
ATOM     19  C   UNL d   1       9.550  -8.325  -0.952  0.00  0.00     0.079 C 
ATOM     20  C   UNL d   1       8.240  -8.552  -1.660  0.00  0.00     0.127 C 
ENDROOT
BRANCH  12  21
ATOM     21  O   UNL d   1      13.650 -16.304   0.835  0.00  0.00    -0.395 OA
ATOM     22  H   UNL d   1      14.566 -16.131   1.107  0.00  0.00     0.210 HD
ENDBRANCH  12  21
TORSDOF 1
ENDMDL
MODEL 9
REMARK VINA RESULT:       0.0     21.641     24.215
REMARK  1 active torsions:
REMARK  status: ('A' for Active; 'I' for Inactive)
REMARK    1  A    between atoms: O_1  and  C_13 
ROOT
ATOM      1  O   UNL d   1       3.285  17.843  10.309  0.00  0.00    -0.298 OA
ATOM      2  C   UNL d   1      -2.202  14.541  10.128  0.00  0.00    -0.005 C 
ATOM      3  C   UNL d   1      -1.505  15.377   9.009  0.00  0.00    -0.002 C 
ATOM      4  C   UNL d   1      -3.622  14.197   9.667  0.00  0.00     0.001 C 
ATOM      5  C   UNL d   1      -3.645  13.379   8.361  0.00  0.00    -0.014 C 
ATOM      6  C   UNL d   1      -0.051  15.827   9.414  0.00  0.00    -0.036 C 
ATOM      7  C   UNL d   1      -0.123  16.566  10.789  0.00  0.00     0.001 C 
ATOM      8  C   UNL d   1      -1.592  14.680   7.623  0.00  0.00     0.007 C 
ATOM      9  C   UNL d   1      -3.020  14.237   7.252  0.00  0.00     0.012 C 
ATOM     10  C   UNL d   1      -2.220  15.312  11.454  0.00  0.00     0.006 C 
ATOM     11  C   UNL d   1      -4.537  13.404  10.599  0.00  0.00     0.008 C 
ATOM     12  C   UNL d   1      -5.164  13.162   8.228  0.00  0.00     0.126 C 
ATOM     13  C   UNL d   1      -0.821  15.744  11.880  0.00  0.00     0.006 C 
ATOM     14  C   UNL d   1      -5.624  12.843   9.664  0.00  0.00     0.033 C 
ATOM     15  C   UNL d   1       0.512  16.819   8.346  0.00  0.00     0.017 C 
ATOM     16  C   UNL d   1      -2.911  12.016   8.439  0.00  0.00     0.018 C 
ATOM     17  C   UNL d   1       0.902  14.605   9.488  0.00  0.00     0.016 C 
ATOM     18  C   UNL d   1       1.258  17.024  11.282  0.00  0.00     0.083 C 
ATOM     19  C   UNL d   1       1.365  17.966   8.888  0.00  0.00     0.079 C 
ATOM     20  C   UNL d   1       2.086  17.605  10.160  0.00  0.00     0.127 C 
ENDROOT
BRANCH  12  21
ATOM     21  O   UNL d   1      -5.497  12.123   7.328  0.00  0.00    -0.395 OA
ATOM     22  H   UNL d   1      -6.409  12.251   7.021  0.00  0.00     0.210 HD
ENDBRANCH  12  21
TORSDOF 1
ENDMDL
