MODEL 1
REMARK VINA RESULT:      -0.0      0.000      0.000
REMARK  2 active torsions:
REMARK  status: ('A' for Active; 'I' for Inactive)
REMARK    1  A    between atoms: O_11  and  C_12 
REMARK    2  A    between atoms: O_11  and  C_13 
ROOT
ATOM      1  O   UNL d   1       9.126  -7.247  -8.394  0.00  0.00    -0.305 OA
ENDROOT
BRANCH   1   2
ATOM      2  C   UNL d   1       9.169  -8.545  -8.868  0.00  0.00     0.113 A 
ATOM      3  C   UNL d   1      10.148  -9.409  -8.402  0.00  0.00     0.065 A 
ATOM      4 BR   UNL d   1      11.399  -8.742  -7.114  0.00  0.00    -0.046 Br
ATOM      5  C   UNL d   1      10.193 -10.719  -8.882  0.00  0.00     0.050 A 
ATOM      6 BR   UNL d   1      11.554 -11.913  -8.237  0.00  0.00    -0.048 Br
ATOM      7  C   UNL d   1       9.257 -11.149  -9.822  0.00  0.00     0.048 A 
ATOM      8 BR   UNL d   1       9.320 -12.954 -10.487  0.00  0.00    -0.048 Br
ATOM      9  C   UNL d   1       8.277 -10.270 -10.283  0.00  0.00     0.050 A 
ATOM     10 BR   UNL d   1       6.977 -10.843 -11.579  0.00  0.00    -0.048 Br
ATOM     11  C   UNL d   1       8.232  -8.960  -9.803  0.00  0.00     0.065 A 
ATOM     12 BR   UNL d   1       6.918  -7.696 -10.385  0.00  0.00    -0.046 Br
ENDBRANCH   1   2
BRANCH   1  13
ATOM     13  C   UNL d   1       9.104  -7.071  -7.040  0.00  0.00     0.113 A 
ATOM     14  C   UNL d   1       8.150  -7.730  -6.265  0.00  0.00     0.065 A 
ATOM     15 BR   UNL d   1       6.906  -8.867  -7.176  0.00  0.00    -0.046 Br
ATOM     16  C   UNL d   1       8.126  -7.548  -4.882  0.00  0.00     0.050 A 
ATOM     17 BR   UNL d   1       6.800  -8.465  -3.834  0.00  0.00    -0.048 Br
ATOM     18  C   UNL d   1       9.056  -6.705  -4.274  0.00  0.00     0.048 A 
ATOM     19 BR   UNL d   1       9.020  -6.451  -2.366  0.00  0.00    -0.048 Br
ATOM     20  C   UNL d   1      10.009  -6.045  -5.048  0.00  0.00     0.050 A 
ATOM     21 BR   UNL d   1      11.301  -4.879  -4.229  0.00  0.00    -0.048 Br
ATOM     22  C   UNL d   1      10.033  -6.227  -6.431  0.00  0.00     0.065 A 
ATOM     23 BR   UNL d   1      11.311  -5.358  -7.561  0.00  0.00    -0.046 Br
ENDBRANCH   1  13
TORSDOF 2
ENDMDL
MODEL 2
REMARK VINA RESULT:      -0.0      4.753      8.100
REMARK  2 active torsions:
REMARK  status: ('A' for Active; 'I' for Inactive)
REMARK    1  A    between atoms: O_11  and  C_12 
REMARK    2  A    between atoms: O_11  and  C_13 
ROOT
ATOM      1  O   UNL d   1       4.049  -8.924 -10.585  0.00  0.00    -0.305 OA
ENDROOT
BRANCH   1   2
ATOM      2  C   UNL d   1       4.206  -7.903  -9.668  0.00  0.00     0.113 A 
ATOM      3  C   UNL d   1       3.466  -7.921  -8.494  0.00  0.00     0.065 A 
ATOM      4 BR   UNL d   1       2.256  -9.379  -8.215  0.00  0.00    -0.046 Br
ATOM      5  C   UNL d   1       3.622  -6.888  -7.569  0.00  0.00     0.050 A 
ATOM      6 BR   UNL d   1       2.593  -6.914  -5.945  0.00  0.00    -0.048 Br
ATOM      7  C   UNL d   1       4.517  -5.850  -7.827  0.00  0.00     0.048 A 
ATOM      8 BR   UNL d   1       4.730  -4.424  -6.552  0.00  0.00    -0.048 Br
ATOM      9  C   UNL d   1       5.254  -5.844  -9.011  0.00  0.00     0.050 A 
ATOM     10 BR   UNL d   1       6.493  -4.421  -9.386  0.00  0.00    -0.048 Br
ATOM     11  C   UNL d   1       5.098  -6.876  -9.937  0.00  0.00     0.065 A 
ATOM     12 BR   UNL d   1       6.074  -6.939 -11.582  0.00  0.00    -0.046 Br
ENDBRANCH   1   2
BRANCH   1  13
ATOM     13  C   UNL d   1       4.182 -10.206 -10.132  0.00  0.00     0.113 A 
ATOM     14  C   UNL d   1       5.323 -10.580  -9.421  0.00  0.00     0.065 A 
ATOM     15 BR   UNL d   1       6.657  -9.238  -9.124  0.00  0.00    -0.046 Br
ATOM     16  C   UNL d   1       5.460 -11.889  -8.960  0.00  0.00     0.050 A 
ATOM     17 BR   UNL d   1       7.042 -12.384  -7.986  0.00  0.00    -0.048 Br
ATOM     18  C   UNL d   1       4.457 -12.825  -9.210  0.00  0.00     0.048 A 
ATOM     19 BR   UNL d   1       4.648 -14.633  -8.576  0.00  0.00    -0.048 Br
ATOM     20  C   UNL d   1       3.316 -12.452  -9.920  0.00  0.00     0.050 A 
ATOM     21 BR   UNL d   1       1.921 -13.726 -10.274  0.00  0.00    -0.048 Br
ATOM     22  C   UNL d   1       3.179 -11.143 -10.382  0.00  0.00     0.065 A 
ATOM     23 BR   UNL d   1       1.644 -10.553 -11.362  0.00  0.00    -0.046 Br
ENDBRANCH   1  13
TORSDOF 2
ENDMDL
MODEL 3
REMARK VINA RESULT:      -0.0     22.661     24.337
REMARK  2 active torsions:
REMARK  status: ('A' for Active; 'I' for Inactive)
REMARK    1  A    between atoms: O_11  and  C_12 
REMARK    2  A    between atoms: O_11  and  C_13 
ROOT
ATOM      1  O   UNL d   1      -7.722  10.175  -7.765  0.00  0.00    -0.305 OA
ENDROOT
BRANCH   1   2
ATOM      2  C   UNL d   1      -6.451   9.746  -8.099  0.00  0.00     0.113 A 
ATOM      3  C   UNL d   1      -5.894   8.672  -7.421  0.00  0.00     0.065 A 
ATOM      4 BR   UNL d   1      -6.933   7.840  -6.044  0.00  0.00    -0.046 Br
ATOM      5  C   UNL d   1      -4.610   8.241  -7.756  0.00  0.00     0.050 A 
ATOM      6 BR   UNL d   1      -3.839   6.754  -6.811  0.00  0.00    -0.048 Br
ATOM      7  C   UNL d   1      -3.898   8.888  -8.766  0.00  0.00     0.048 A 
ATOM      8 BR   UNL d   1      -2.126   8.294  -9.226  0.00  0.00    -0.048 Br
ATOM      9  C   UNL d   1      -4.470   9.966  -9.440  0.00  0.00     0.050 A 
ATOM     10 BR   UNL d   1      -3.506  10.872 -10.836  0.00  0.00    -0.048 Br
ATOM     11  C   UNL d   1      -5.754  10.398  -9.105  0.00  0.00     0.065 A 
ATOM     12 BR   UNL d   1      -6.607  11.869  -9.984  0.00  0.00    -0.046 Br
ENDBRANCH   1   2
BRANCH   1  13
ATOM     13  C   UNL d   1      -8.719   9.241  -7.750  0.00  0.00     0.113 A 
ATOM     14  C   UNL d   1      -8.933   8.429  -8.865  0.00  0.00     0.065 A 
ATOM     15 BR   UNL d   1      -7.785   8.686 -10.376  0.00  0.00    -0.046 Br
ATOM     16  C   UNL d   1      -9.953   7.478  -8.850  0.00  0.00     0.050 A 
ATOM     17 BR   UNL d   1     -10.231   6.372 -10.398  0.00  0.00    -0.048 Br
ATOM     18  C   UNL d   1     -10.760   7.338  -7.721  0.00  0.00     0.048 A 
ATOM     19 BR   UNL d   1     -12.169   6.027  -7.703  0.00  0.00    -0.048 Br
ATOM     20  C   UNL d   1     -10.547   8.149  -6.607  0.00  0.00     0.050 A 
ATOM     21 BR   UNL d   1     -11.648   7.972  -5.041  0.00  0.00    -0.048 Br
ATOM     22  C   UNL d   1      -9.528   9.101  -6.622  0.00  0.00     0.065 A 
ATOM     23 BR   UNL d   1      -9.172  10.251  -5.132  0.00  0.00    -0.046 Br
ENDBRANCH   1  13
TORSDOF 2
ENDMDL
MODEL 4
REMARK VINA RESULT:      -0.0     18.754     21.468
REMARK  2 active torsions:
REMARK  status: ('A' for Active; 'I' for Inactive)
REMARK    1  A    between atoms: O_11  and  C_12 
REMARK    2  A    between atoms: O_11  and  C_13 
ROOT
ATOM      1  O   UNL d   1       4.784   9.694   4.682  0.00  0.00    -0.305 OA
ENDROOT
BRANCH   1   2
ATOM      2  C   UNL d   1       5.688  10.252   3.797  0.00  0.00     0.113 A 
ATOM      3  C   UNL d   1       7.005   9.819   3.803  0.00  0.00     0.065 A 
ATOM      4 BR   UNL d   1       7.499   8.456   5.055  0.00  0.00    -0.046 Br
ATOM      5  C   UNL d   1       7.917  10.385   2.912  0.00  0.00     0.050 A 
ATOM      6 BR   UNL d   1       9.744   9.784   2.925  0.00  0.00    -0.048 Br
ATOM      7  C   UNL d   1       7.501  11.377   2.024  0.00  0.00     0.048 A 
ATOM      8 BR   UNL d   1       8.760  12.159   0.796  0.00  0.00    -0.048 Br
ATOM      9  C   UNL d   1       6.174  11.804   2.028  0.00  0.00     0.050 A 
ATOM     10 BR   UNL d   1       5.579  13.170   0.813  0.00  0.00    -0.048 Br
ATOM     11  C   UNL d   1       5.261  11.239   2.920  0.00  0.00     0.065 A 
ATOM     12 BR   UNL d   1       3.423  11.770   2.986  0.00  0.00    -0.046 Br
ENDBRANCH   1   2
BRANCH   1  13
ATOM     13  C   UNL d   1       4.683   8.332   4.704  0.00  0.00     0.113 A 
ATOM     14  C   UNL d   1       4.455   7.629   3.521  0.00  0.00     0.065 A 
ATOM     15 BR   UNL d   1       4.295   8.648   1.907  0.00  0.00    -0.046 Br
ATOM     16  C   UNL d   1       4.349   6.239   3.544  0.00  0.00     0.050 A 
ATOM     17 BR   UNL d   1       4.031   5.291   1.902  0.00  0.00    -0.048 Br
ATOM     18  C   UNL d   1       4.471   5.550   4.751  0.00  0.00     0.048 A 
ATOM     19 BR   UNL d   1       4.321   3.631   4.783  0.00  0.00    -0.048 Br
ATOM     20  C   UNL d   1       4.699   6.252   5.934  0.00  0.00     0.050 A 
ATOM     21 BR   UNL d   1       4.870   5.322   7.608  0.00  0.00    -0.048 Br
ATOM     22  C   UNL d   1       4.804   7.642   5.911  0.00  0.00     0.065 A 
ATOM     23 BR   UNL d   1       5.118   8.677   7.492  0.00  0.00    -0.046 Br
ENDBRANCH   1  13
TORSDOF 2
ENDMDL
MODEL 5
REMARK VINA RESULT:      -0.0     18.098     19.603
REMARK  2 active torsions:
REMARK  status: ('A' for Active; 'I' for Inactive)
REMARK    1  A    between atoms: O_11  and  C_12 
REMARK    2  A    between atoms: O_11  and  C_13 
ROOT
ATOM      1  O   UNL d   1     -10.212  -9.377  -6.246  0.00  0.00    -0.305 OA
ENDROOT
BRANCH   1   2
ATOM      2  C   UNL d   1      -9.939  -9.982  -7.459  0.00  0.00     0.113 A 
ATOM      3  C   UNL d   1      -8.897 -10.894  -7.547  0.00  0.00     0.065 A 
ATOM      4 BR   UNL d   1      -7.887 -11.262  -5.962  0.00  0.00    -0.046 Br
ATOM      5  C   UNL d   1      -8.620 -11.502  -8.772  0.00  0.00     0.050 A 
ATOM      6 BR   UNL d   1      -7.173 -12.762  -8.891  0.00  0.00    -0.048 Br
ATOM      7  C   UNL d   1      -9.388 -11.193  -9.894  0.00  0.00     0.048 A 
ATOM      8 BR   UNL d   1      -9.004 -12.031 -11.584  0.00  0.00    -0.048 Br
ATOM      9  C   UNL d   1     -10.433 -10.275  -9.792  0.00  0.00     0.050 A 
ATOM     10 BR   UNL d   1     -11.504  -9.835 -11.327  0.00  0.00    -0.048 Br
ATOM     11  C   UNL d   1     -10.710  -9.666  -8.568  0.00  0.00     0.065 A 
ATOM     12 BR   UNL d   1     -12.127  -8.397  -8.347  0.00  0.00    -0.046 Br
ENDBRANCH   1   2
BRANCH   1  13
ATOM     13  C   UNL d   1     -10.392 -10.190  -5.163  0.00  0.00     0.113 A 
ATOM     14  C   UNL d   1     -11.315 -11.235  -5.219  0.00  0.00     0.065 A 
ATOM     15 BR   UNL d   1     -12.289 -11.465  -6.852  0.00  0.00    -0.046 Br
ATOM     16  C   UNL d   1     -11.500 -12.062  -4.112  0.00  0.00     0.050 A 
ATOM     17 BR   UNL d   1     -12.779 -13.495  -4.210  0.00  0.00    -0.048 Br
ATOM     18  C   UNL d   1     -10.764 -11.844  -2.947  0.00  0.00     0.048 A 
ATOM     19 BR   UNL d   1     -11.022 -12.985  -1.418  0.00  0.00    -0.048 Br
ATOM     20  C   UNL d   1      -9.842 -10.800  -2.891  0.00  0.00     0.050 A 
ATOM     21 BR   UNL d   1      -8.817 -10.483  -1.295  0.00  0.00    -0.048 Br
ATOM     22  C   UNL d   1      -9.657  -9.972  -3.997  0.00  0.00     0.065 A 
ATOM     23 BR   UNL d   1      -8.410  -8.518  -3.998  0.00  0.00    -0.046 Br
ENDBRANCH   1  13
TORSDOF 2
ENDMDL
MODEL 6
REMARK VINA RESULT:      -0.0      7.922     10.825
REMARK  2 active torsions:
REMARK  status: ('A' for Active; 'I' for Inactive)
REMARK    1  A    between atoms: O_11  and  C_12 
REMARK    2  A    between atoms: O_11  and  C_13 
ROOT
ATOM      1  O   UNL d   1       4.420  -3.696 -12.100  0.00  0.00    -0.305 OA
ENDROOT
BRANCH   1   2
ATOM      2  C   UNL d   1       3.223  -4.287 -11.742  0.00  0.00     0.113 A 
ATOM      3  C   UNL d   1       2.037  -3.590 -11.924  0.00  0.00     0.065 A 
ATOM      4 BR   UNL d   1       2.134  -1.829 -12.671  0.00  0.00    -0.046 Br
ATOM      5  C   UNL d   1       0.829  -4.185 -11.560  0.00  0.00     0.050 A 
ATOM      6 BR   UNL d   1      -0.812  -3.216 -11.811  0.00  0.00    -0.048 Br
ATOM      7  C   UNL d   1       0.820  -5.470 -11.017  0.00  0.00     0.048 A 
ATOM      8 BR   UNL d   1      -0.847  -6.290 -10.512  0.00  0.00    -0.048 Br
ATOM      9  C   UNL d   1       2.019  -6.159 -10.839  0.00  0.00     0.050 A 
ATOM     10 BR   UNL d   1       2.028  -7.932 -10.093  0.00  0.00    -0.048 Br
ATOM     11  C   UNL d   1       3.227  -5.565 -11.203  0.00  0.00     0.065 A 
ATOM     12 BR   UNL d   1       4.913  -6.446 -10.990  0.00  0.00    -0.046 Br
ENDBRANCH   1   2
BRANCH   1  13
ATOM     13  C   UNL d   1       4.522  -3.198 -13.368  0.00  0.00     0.113 A 
ATOM     14  C   UNL d   1       4.219  -4.007 -14.463  0.00  0.00     0.065 A 
ATOM     15 BR   UNL d   1       3.665  -5.806 -14.105  0.00  0.00    -0.046 Br
ATOM     16  C   UNL d   1       4.326  -3.499 -15.758  0.00  0.00     0.050 A 
ATOM     17 BR   UNL d   1       3.905  -4.633 -17.252  0.00  0.00    -0.048 Br
ATOM     18  C   UNL d   1       4.738  -2.182 -15.958  0.00  0.00     0.048 A 
ATOM     19 BR   UNL d   1       4.889  -1.482 -17.745  0.00  0.00    -0.048 Br
ATOM     20  C   UNL d   1       5.042  -1.373 -14.864  0.00  0.00     0.050 A 
ATOM     21 BR   UNL d   1       5.610   0.447 -15.118  0.00  0.00    -0.048 Br
ATOM     22  C   UNL d   1       4.935  -1.880 -13.569  0.00  0.00     0.065 A 
ATOM     23 BR   UNL d   1       5.333  -0.833 -12.016  0.00  0.00    -0.046 Br
ENDBRANCH   1  13
TORSDOF 2
ENDMDL
MODEL 7
REMARK VINA RESULT:      -0.0     14.329     16.662
REMARK  2 active torsions:
REMARK  status: ('A' for Active; 'I' for Inactive)
REMARK    1  A    between atoms: O_11  and  C_12 
REMARK    2  A    between atoms: O_11  and  C_13 
ROOT
ATOM      1  O   UNL d   1      -2.846   0.137  -6.154  0.00  0.00    -0.305 OA
ENDROOT
BRANCH   1   2
ATOM      2  C   UNL d   1      -2.170   1.271  -5.745  0.00  0.00     0.113 A 
ATOM      3  C   UNL d   1      -2.887   2.411  -5.414  0.00  0.00     0.065 A 
ATOM      4 BR   UNL d   1      -4.796   2.344  -5.548  0.00  0.00    -0.046 Br
ATOM      5  C   UNL d   1      -2.203   3.557  -5.004  0.00  0.00     0.050 A 
ATOM      6 BR   UNL d   1      -3.201   5.136  -4.550  0.00  0.00    -0.048 Br
ATOM      7  C   UNL d   1      -0.811   3.548  -4.928  0.00  0.00     0.048 A 
ATOM      8 BR   UNL d   1       0.132   5.129  -4.364  0.00  0.00    -0.048 Br
ATOM      9  C   UNL d   1      -0.102   2.395  -5.263  0.00  0.00     0.050 A 
ATOM     10 BR   UNL d   1       1.819   2.363  -5.165  0.00  0.00    -0.048 Br
ATOM     11  C   UNL d   1      -0.784   1.250  -5.674  0.00  0.00     0.065 A 
ATOM     12 BR   UNL d   1       0.117  -0.370  -6.149  0.00  0.00    -0.046 Br
ENDBRANCH   1   2
BRANCH   1  13
ATOM     13  C   UNL d   1      -3.847  -0.325  -5.347  0.00  0.00     0.113 A 
ATOM     14  C   UNL d   1      -3.600  -0.565  -3.995  0.00  0.00     0.065 A 
ATOM     15 BR   UNL d   1      -1.831  -0.220  -3.347  0.00  0.00    -0.046 Br
ATOM     16  C   UNL d   1      -4.622  -1.040  -3.173  0.00  0.00     0.050 A 
ATOM     17 BR   UNL d   1      -4.258  -1.366  -1.313  0.00  0.00    -0.048 Br
ATOM     18  C   UNL d   1      -5.890  -1.275  -3.702  0.00  0.00     0.048 A 
ATOM     19 BR   UNL d   1      -7.299  -1.934  -2.567  0.00  0.00    -0.048 Br
ATOM     20  C   UNL d   1      -6.137  -1.037  -5.053  0.00  0.00     0.050 A 
ATOM     21 BR   UNL d   1      -7.880  -1.355  -5.803  0.00  0.00    -0.048 Br
ATOM     22  C   UNL d   1      -5.116  -0.562  -5.876  0.00  0.00     0.065 A 
ATOM     23 BR   UNL d   1      -5.377  -0.209  -7.740  0.00  0.00    -0.046 Br
ENDBRANCH   1  13
TORSDOF 2
ENDMDL
MODEL 8
REMARK VINA RESULT:       0.0     19.528     21.779
REMARK  2 active torsions:
REMARK  status: ('A' for Active; 'I' for Inactive)
REMARK    1  A    between atoms: O_11  and  C_12 
REMARK    2  A    between atoms: O_11  and  C_13 
ROOT
ATOM      1  O   UNL d   1       4.021   5.689   5.173  0.00  0.00    -0.305 OA
ENDROOT
BRANCH   1   2
ATOM      2  C   UNL d   1       4.336   6.985   5.536  0.00  0.00     0.113 A 
ATOM      3  C   UNL d   1       3.350   7.804   6.066  0.00  0.00     0.065 A 
ATOM      4 BR   UNL d   1       1.588   7.080   6.262  0.00  0.00    -0.046 Br
ATOM      5  C   UNL d   1       3.668   9.113   6.430  0.00  0.00     0.050 A 
ATOM      6 BR   UNL d   1       2.298  10.247   7.159  0.00  0.00    -0.048 Br
ATOM      7  C   UNL d   1       4.969   9.587   6.261  0.00  0.00     0.048 A 
ATOM      8 BR   UNL d   1       5.407  11.394   6.761  0.00  0.00    -0.048 Br
ATOM      9  C   UNL d   1       5.951   8.753   5.728  0.00  0.00     0.050 A 
ATOM     10 BR   UNL d   1       7.751   9.387   5.487  0.00  0.00    -0.048 Br
ATOM     11  C   UNL d   1       5.634   7.445   5.363  0.00  0.00     0.065 A 
ATOM     12 BR   UNL d   1       6.925   6.239   4.627  0.00  0.00    -0.046 Br
ENDBRANCH   1   2
BRANCH   1  13
ATOM     13  C   UNL d   1       3.406   4.904   6.108  0.00  0.00     0.113 A 
ATOM     14  C   UNL d   1       3.969   4.758   7.376  0.00  0.00     0.065 A 
ATOM     15 BR   UNL d   1       5.604   5.691   7.728  0.00  0.00    -0.046 Br
ATOM     16  C   UNL d   1       3.343   3.954   8.328  0.00  0.00     0.050 A 
ATOM     17 BR   UNL d   1       4.137   3.765  10.069  0.00  0.00    -0.048 Br
ATOM     18  C   UNL d   1       2.154   3.296   8.013  0.00  0.00     0.048 A 
ATOM     19 BR   UNL d   1       1.292   2.185   9.327  0.00  0.00    -0.048 Br
ATOM     20  C   UNL d   1       1.592   3.442   6.746  0.00  0.00     0.050 A 
ATOM     21 BR   UNL d   1      -0.047   2.544   6.291  0.00  0.00    -0.048 Br
ATOM     22  C   UNL d   1       2.218   4.245   5.792  0.00  0.00     0.065 A 
ATOM     23 BR   UNL d   1       1.508   4.496   4.032  0.00  0.00    -0.046 Br
ENDBRANCH   1  13
TORSDOF 2
ENDMDL
MODEL 9
REMARK VINA RESULT:       0.0     14.884     17.377
REMARK  2 active torsions:
REMARK  status: ('A' for Active; 'I' for Inactive)
REMARK    1  A    between atoms: O_11  and  C_12 
REMARK    2  A    between atoms: O_11  and  C_13 
ROOT
ATOM      1  O   UNL d   1      -6.434  -0.981  -4.951  0.00  0.00    -0.305 OA
ENDROOT
BRANCH   1   2
ATOM      2  C   UNL d   1      -6.315  -1.287  -3.608  0.00  0.00     0.113 A 
ATOM      3  C   UNL d   1      -5.375  -2.222  -3.202  0.00  0.00     0.065 A 
ATOM      4 BR   UNL d   1      -4.286  -3.045  -4.545  0.00  0.00    -0.046 Br
ATOM      5  C   UNL d   1      -5.258  -2.532  -1.846  0.00  0.00     0.050 A 
ATOM      6 BR   UNL d   1      -3.956  -3.832  -1.287  0.00  0.00    -0.048 Br
ATOM      7  C   UNL d   1      -6.081  -1.903  -0.913  0.00  0.00     0.048 A 
ATOM      8 BR   UNL d   1      -5.920  -2.333   0.957  0.00  0.00    -0.048 Br
ATOM      9  C   UNL d   1      -7.022  -0.964  -1.334  0.00  0.00     0.050 A 
ATOM     10 BR   UNL d   1      -8.167  -0.085  -0.064  0.00  0.00    -0.048 Br
ATOM     11  C   UNL d   1      -7.141  -0.654  -2.690  0.00  0.00     0.065 A 
ATOM     12 BR   UNL d   1      -8.406   0.623  -3.346  0.00  0.00    -0.046 Br
ENDBRANCH   1   2
BRANCH   1  13
ATOM     13  C   UNL d   1      -5.298  -0.618  -5.618  0.00  0.00     0.113 A 
ATOM     14  C   UNL d   1      -4.495   0.409  -5.121  0.00  0.00     0.065 A 
ATOM     15 BR   UNL d   1      -5.054   1.259  -3.498  0.00  0.00    -0.046 Br
ATOM     16  C   UNL d   1      -3.337   0.781  -5.804  0.00  0.00     0.050 A 
ATOM     17 BR   UNL d   1      -2.247   2.201  -5.103  0.00  0.00    -0.048 Br
ATOM     18  C   UNL d   1      -2.982   0.127  -6.983  0.00  0.00     0.048 A 
ATOM     19 BR   UNL d   1      -1.386   0.643  -7.926  0.00  0.00    -0.048 Br
ATOM     20  C   UNL d   1      -3.785  -0.899  -7.480  0.00  0.00     0.050 A 
ATOM     21 BR   UNL d   1      -3.313  -1.814  -9.104  0.00  0.00    -0.048 Br
ATOM     22  C   UNL d   1      -4.943  -1.271  -6.798  0.00  0.00     0.065 A 
ATOM     23 BR   UNL d   1      -6.096  -2.670  -7.415  0.00  0.00    -0.046 Br
ENDBRANCH   1  13
TORSDOF 2
ENDMDL
