MODEL 1
REMARK VINA RESULT:       0.0      0.000      0.000
REMARK  12 active torsions:
REMARK  status: ('A' for Active; 'I' for Inactive)
REMARK    1  A    between atoms: P_4  and  O_5 
REMARK    2  A    between atoms: P_4  and  O_6 
REMARK    3  A    between atoms: P_4  and  O_7 
REMARK    4  A    between atoms: O_5  and  C_9 
REMARK    5  A    between atoms: O_6  and  C_10 
REMARK    6  A    between atoms: O_7  and  C_11 
REMARK    7  A    between atoms: C_9  and  C_12 
REMARK    8  A    between atoms: C_10  and  C_13 
REMARK    9  A    between atoms: C_11  and  C_14 
REMARK   10  A    between atoms: C_12  and  C_15 
REMARK   11  A    between atoms: C_13  and  C_16 
REMARK   12  A    between atoms: C_14  and  C_17 
ROOT
ATOM      1  P   UNL d   1      -2.639 -14.215   8.506  0.00  0.00     0.477 P 
ATOM      2  O   UNL d   1      -1.658 -15.051   9.278  0.00  0.00    -0.227 OA
ENDROOT
BRANCH   1   3
ATOM      3  O   UNL d   1      -1.960 -13.056   7.599  0.00  0.00    -0.292 OA
BRANCH   3   4
ATOM      4  C   UNL d   1      -2.491 -11.741   7.610  0.00  0.00     0.181 C 
BRANCH   4   5
ATOM      5  C   UNL d   1      -3.329 -11.543   6.353  0.00  0.00     0.042 C 
BRANCH   5   6
ATOM      6  C   UNL d   1      -2.537 -11.699   5.062  0.00  0.00     0.116 C 
ATOM      7 CL   UNL d   1      -3.594 -11.760   3.633  0.00  0.00    -0.130 Cl
ENDBRANCH   5   6
ENDBRANCH   4   5
ENDBRANCH   3   4
ENDBRANCH   1   3
BRANCH   1   8
ATOM      8  O   UNL d   1      -3.724 -13.432   9.418  0.00  0.00    -0.292 OA
BRANCH   8   9
ATOM      9  C   UNL d   1      -5.073 -13.863   9.382  0.00  0.00     0.181 C 
BRANCH   9  10
ATOM     10  C   UNL d   1      -5.942 -12.713   8.887  0.00  0.00     0.042 C 
BRANCH  10  11
ATOM     11  C   UNL d   1      -5.671 -11.394   9.599  0.00  0.00     0.116 C 
ATOM     12 CL   UNL d   1      -5.859 -10.000   8.510  0.00  0.00    -0.130 Cl
ENDBRANCH  10  11
ENDBRANCH   9  10
ENDBRANCH   8   9
ENDBRANCH   1   8
BRANCH   1  13
ATOM     13  O   UNL d   1      -3.567 -15.047   7.471  0.00  0.00    -0.292 OA
BRANCH  13  14
ATOM     14  C   UNL d   1      -3.065 -15.304   6.170  0.00  0.00     0.181 C 
BRANCH  14  15
ATOM     15  C   UNL d   1      -4.179 -15.064   5.160  0.00  0.00     0.042 C 
BRANCH  15  16
ATOM     16  C   UNL d   1      -5.551 -14.881   5.796  0.00  0.00     0.116 C 
ATOM     17 CL   UNL d   1      -6.322 -13.360   5.291  0.00  0.00    -0.130 Cl
ENDBRANCH  15  16
ENDBRANCH  14  15
ENDBRANCH  13  14
ENDBRANCH   1  13
TORSDOF 12
ENDMDL
MODEL 2
REMARK VINA RESULT:       0.0     18.463     19.391
REMARK  12 active torsions:
REMARK  status: ('A' for Active; 'I' for Inactive)
REMARK    1  A    between atoms: P_4  and  O_5 
REMARK    2  A    between atoms: P_4  and  O_6 
REMARK    3  A    between atoms: P_4  and  O_7 
REMARK    4  A    between atoms: O_5  and  C_9 
REMARK    5  A    between atoms: O_6  and  C_10 
REMARK    6  A    between atoms: O_7  and  C_11 
REMARK    7  A    between atoms: C_9  and  C_12 
REMARK    8  A    between atoms: C_10  and  C_13 
REMARK    9  A    between atoms: C_11  and  C_14 
REMARK   10  A    between atoms: C_12  and  C_15 
REMARK   11  A    between atoms: C_13  and  C_16 
REMARK   12  A    between atoms: C_14  and  C_17 
ROOT
ATOM      1  P   UNL d   1     -12.274  -2.735  -4.086  0.00  0.00     0.477 P 
ATOM      2  O   UNL d   1     -11.907  -2.994  -2.652  0.00  0.00    -0.227 OA
ENDROOT
BRANCH   1   3
ATOM      3  O   UNL d   1     -11.008  -2.644  -5.094  0.00  0.00    -0.292 OA
BRANCH   3   4
ATOM      4  C   UNL d   1     -10.349  -1.405  -5.298  0.00  0.00     0.181 C 
BRANCH   4   5
ATOM      5  C   UNL d   1     -10.080  -1.236  -6.789  0.00  0.00     0.042 C 
BRANCH   5   6
ATOM      6  C   UNL d   1     -10.370  -2.487  -7.606  0.00  0.00     0.116 C 
ATOM      7 CL   UNL d   1     -11.499  -2.164  -8.942  0.00  0.00    -0.130 Cl
ENDBRANCH   5   6
ENDBRANCH   4   5
ENDBRANCH   3   4
ENDBRANCH   1   3
BRANCH   1   8
ATOM      8  O   UNL d   1     -13.090  -1.359  -4.336  0.00  0.00    -0.292 OA
BRANCH   8   9
ATOM      9  C   UNL d   1     -14.241  -1.396  -5.162  0.00  0.00     0.181 C 
BRANCH   9  10
ATOM     10  C   UNL d   1     -13.882  -0.824  -6.528  0.00  0.00     0.042 C 
BRANCH  10  11
ATOM     11  C   UNL d   1     -13.341   0.599  -6.471  0.00  0.00     0.116 C 
ATOM     12 CL   UNL d   1     -12.634   1.105  -8.023  0.00  0.00    -0.130 Cl
ENDBRANCH  10  11
ENDBRANCH   9  10
ENDBRANCH   8   9
ENDBRANCH   1   8
BRANCH   1  13
ATOM     13  O   UNL d   1     -13.240  -3.855  -4.748  0.00  0.00    -0.292 OA
BRANCH  13  14
ATOM     14  C   UNL d   1     -12.676  -4.771  -5.672  0.00  0.00     0.181 C 
BRANCH  14  15
ATOM     15  C   UNL d   1     -13.412  -4.641  -6.999  0.00  0.00     0.042 C 
BRANCH  15  16
ATOM     16  C   UNL d   1     -14.928  -4.684  -6.864  0.00  0.00     0.116 C 
ATOM     17 CL   UNL d   1     -15.732  -3.608  -8.030  0.00  0.00    -0.130 Cl
ENDBRANCH  15  16
ENDBRANCH  14  15
ENDBRANCH  13  14
ENDBRANCH   1  13
TORSDOF 12
ENDMDL
MODEL 3
REMARK VINA RESULT:       0.0     17.715     18.654
REMARK  12 active torsions:
REMARK  status: ('A' for Active; 'I' for Inactive)
REMARK    1  A    between atoms: P_4  and  O_5 
REMARK    2  A    between atoms: P_4  and  O_6 
REMARK    3  A    between atoms: P_4  and  O_7 
REMARK    4  A    between atoms: O_5  and  C_9 
REMARK    5  A    between atoms: O_6  and  C_10 
REMARK    6  A    between atoms: O_7  and  C_11 
REMARK    7  A    between atoms: C_9  and  C_12 
REMARK    8  A    between atoms: C_10  and  C_13 
REMARK    9  A    between atoms: C_11  and  C_14 
REMARK   10  A    between atoms: C_12  and  C_15 
REMARK   11  A    between atoms: C_13  and  C_16 
REMARK   12  A    between atoms: C_14  and  C_17 
ROOT
ATOM      1  P   UNL d   1     -10.173   2.465   0.498  0.00  0.00     0.477 P 
ATOM      2  O   UNL d   1      -8.983   3.215   1.025  0.00  0.00    -0.227 OA
ENDROOT
BRANCH   1   3
ATOM      3  O   UNL d   1     -11.279   3.397  -0.234  0.00  0.00    -0.292 OA
BRANCH   3   4
ATOM      4  C   UNL d   1     -12.614   3.428   0.245  0.00  0.00     0.181 C 
BRANCH   4   5
ATOM      5  C   UNL d   1     -13.504   2.683  -0.742  0.00  0.00     0.042 C 
BRANCH   5   6
ATOM      6  C   UNL d   1     -14.856   2.287  -0.164  0.00  0.00     0.116 C 
ATOM      7 CL   UNL d   1     -15.949   1.637  -1.407  0.00  0.00    -0.130 Cl
ENDBRANCH   5   6
ENDBRANCH   4   5
ENDBRANCH   3   4
ENDBRANCH   1   3
BRANCH   1   8
ATOM      8  O   UNL d   1     -11.010   1.651   1.621  0.00  0.00    -0.292 OA
BRANCH   8   9
ATOM      9  C   UNL d   1     -11.034   0.236   1.550  0.00  0.00     0.181 C 
BRANCH   9  10
ATOM     10  C   UNL d   1     -12.478  -0.221   1.383  0.00  0.00     0.042 C 
BRANCH  10  11
ATOM     11  C   UNL d   1     -12.733  -0.980   0.087  0.00  0.00     0.116 C 
ATOM     12 CL   UNL d   1     -14.456  -1.361  -0.134  0.00  0.00    -0.130 Cl
ENDBRANCH  10  11
ENDBRANCH   9  10
ENDBRANCH   8   9
ENDBRANCH   1   8
BRANCH   1  13
ATOM     13  O   UNL d   1      -9.821   1.321  -0.593  0.00  0.00    -0.292 OA
BRANCH  13  14
ATOM     14  C   UNL d   1      -9.990   1.624  -1.968  0.00  0.00     0.181 C 
BRANCH  14  15
ATOM     15  C   UNL d   1     -10.753   0.484  -2.630  0.00  0.00     0.042 C 
BRANCH  15  16
ATOM     16  C   UNL d   1     -11.823   0.952  -3.607  0.00  0.00     0.116 C 
ATOM     17 CL   UNL d   1     -13.365   0.100  -3.364  0.00  0.00    -0.130 Cl
ENDBRANCH  15  16
ENDBRANCH  14  15
ENDBRANCH  13  14
ENDBRANCH   1  13
TORSDOF 12
ENDMDL
MODEL 4
REMARK VINA RESULT:       0.0      3.227      4.235
REMARK  12 active torsions:
REMARK  status: ('A' for Active; 'I' for Inactive)
REMARK    1  A    between atoms: P_4  and  O_5 
REMARK    2  A    between atoms: P_4  and  O_6 
REMARK    3  A    between atoms: P_4  and  O_7 
REMARK    4  A    between atoms: O_5  and  C_9 
REMARK    5  A    between atoms: O_6  and  C_10 
REMARK    6  A    between atoms: O_7  and  C_11 
REMARK    7  A    between atoms: C_9  and  C_12 
REMARK    8  A    between atoms: C_10  and  C_13 
REMARK    9  A    between atoms: C_11  and  C_14 
REMARK   10  A    between atoms: C_12  and  C_15 
REMARK   11  A    between atoms: C_13  and  C_16 
REMARK   12  A    between atoms: C_14  and  C_17 
ROOT
ATOM      1  P   UNL d   1      -3.594  -9.969  11.010  0.00  0.00     0.477 P 
ATOM      2  O   UNL d   1      -2.840  -9.642  12.268  0.00  0.00    -0.227 OA
ENDROOT
BRANCH   1   3
ATOM      3  O   UNL d   1      -3.631  -8.767   9.923  0.00  0.00    -0.292 OA
BRANCH   3   4
ATOM      4  C   UNL d   1      -2.988  -8.923   8.668  0.00  0.00     0.181 C 
BRANCH   4   5
ATOM      5  C   UNL d   1      -4.054  -9.021   7.583  0.00  0.00     0.042 C 
BRANCH   5   6
ATOM      6  C   UNL d   1      -4.978  -7.812   7.526  0.00  0.00     0.116 C 
ATOM      7 CL   UNL d   1      -6.196  -7.964   6.239  0.00  0.00    -0.130 Cl
ENDBRANCH   5   6
ENDBRANCH   4   5
ENDBRANCH   3   4
ENDBRANCH   1   3
BRANCH   1   8
ATOM      8  O   UNL d   1      -5.150 -10.358  11.237  0.00  0.00    -0.292 OA
BRANCH   8   9
ATOM      9  C   UNL d   1      -6.144  -9.459  10.775  0.00  0.00     0.181 C 
BRANCH   9  10
ATOM     10  C   UNL d   1      -6.976 -10.158   9.706  0.00  0.00     0.042 C 
BRANCH  10  11
ATOM     11  C   UNL d   1      -8.075  -9.282   9.119  0.00  0.00     0.116 C 
ATOM     12 CL   UNL d   1      -8.779  -9.994   7.649  0.00  0.00    -0.130 Cl
ENDBRANCH  10  11
ENDBRANCH   9  10
ENDBRANCH   8   9
ENDBRANCH   1   8
BRANCH   1  13
ATOM     13  O   UNL d   1      -3.017 -11.240  10.189  0.00  0.00    -0.292 OA
BRANCH  13  14
ATOM     14  C   UNL d   1      -3.869 -12.355   9.985  0.00  0.00     0.181 C 
BRANCH  14  15
ATOM     15  C   UNL d   1      -3.958 -12.635   8.491  0.00  0.00     0.042 C 
BRANCH  15  16
ATOM     16  C   UNL d   1      -5.347 -13.057   8.030  0.00  0.00     0.116 C 
ATOM     17 CL   UNL d   1      -5.957 -12.021   6.719  0.00  0.00    -0.130 Cl
ENDBRANCH  15  16
ENDBRANCH  14  15
ENDBRANCH  13  14
ENDBRANCH   1  13
TORSDOF 12
ENDMDL
MODEL 5
REMARK VINA RESULT:       0.0      9.324     10.763
REMARK  12 active torsions:
REMARK  status: ('A' for Active; 'I' for Inactive)
REMARK    1  A    between atoms: P_4  and  O_5 
REMARK    2  A    between atoms: P_4  and  O_6 
REMARK    3  A    between atoms: P_4  and  O_7 
REMARK    4  A    between atoms: O_5  and  C_9 
REMARK    5  A    between atoms: O_6  and  C_10 
REMARK    6  A    between atoms: O_7  and  C_11 
REMARK    7  A    between atoms: C_9  and  C_12 
REMARK    8  A    between atoms: C_10  and  C_13 
REMARK    9  A    between atoms: C_11  and  C_14 
REMARK   10  A    between atoms: C_12  and  C_15 
REMARK   11  A    between atoms: C_13  and  C_16 
REMARK   12  A    between atoms: C_14  and  C_17 
ROOT
ATOM      1  P   UNL d   1     -11.088 -15.056   3.072  0.00  0.00     0.477 P 
ATOM      2  O   UNL d   1      -9.632 -15.402   3.197  0.00  0.00    -0.227 OA
ENDROOT
BRANCH   1   3
ATOM      3  O   UNL d   1     -11.618 -13.985   4.167  0.00  0.00    -0.292 OA
BRANCH   3   4
ATOM      4  C   UNL d   1     -11.703 -12.609   3.833  0.00  0.00     0.181 C 
BRANCH   4   5
ATOM      5  C   UNL d   1     -13.070 -12.087   4.258  0.00  0.00     0.042 C 
BRANCH   5   6
ATOM      6  C   UNL d   1     -13.764 -11.254   3.189  0.00  0.00     0.116 C 
ATOM      7 CL   UNL d   1     -15.471 -11.710   2.991  0.00  0.00    -0.130 Cl
ENDBRANCH   5   6
ENDBRANCH   4   5
ENDBRANCH   3   4
ENDBRANCH   1   3
BRANCH   1   8
ATOM      8  O   UNL d   1     -12.096 -16.316   3.218  0.00  0.00    -0.292 OA
BRANCH   8   9
ATOM      9  C   UNL d   1     -12.925 -16.388   4.365  0.00  0.00     0.181 C 
BRANCH   9  10
ATOM     10  C   UNL d   1     -14.382 -16.375   3.918  0.00  0.00     0.042 C 
BRANCH  10  11
ATOM     11  C   UNL d   1     -15.135 -15.116   4.327  0.00  0.00     0.116 C 
ATOM     12 CL   UNL d   1     -16.790 -15.090   3.677  0.00  0.00    -0.130 Cl
ENDBRANCH  10  11
ENDBRANCH   9  10
ENDBRANCH   8   9
ENDBRANCH   1   8
BRANCH   1  13
ATOM     13  O   UNL d   1     -11.510 -14.418   1.644  0.00  0.00    -0.292 OA
BRANCH  13  14
ATOM     14  C   UNL d   1     -12.509 -15.071   0.881  0.00  0.00     0.181 C 
BRANCH  14  15
ATOM     15  C   UNL d   1     -13.771 -14.217   0.894  0.00  0.00     0.042 C 
BRANCH  15  16
ATOM     16  C   UNL d   1     -15.022 -14.970   0.463  0.00  0.00     0.116 C 
ATOM     17 CL   UNL d   1     -16.430 -13.893   0.316  0.00  0.00    -0.130 Cl
ENDBRANCH  15  16
ENDBRANCH  14  15
ENDBRANCH  13  14
ENDBRANCH   1  13
TORSDOF 12
ENDMDL
MODEL 6
REMARK VINA RESULT:       0.0     13.319     14.733
REMARK  12 active torsions:
REMARK  status: ('A' for Active; 'I' for Inactive)
REMARK    1  A    between atoms: P_4  and  O_5 
REMARK    2  A    between atoms: P_4  and  O_6 
REMARK    3  A    between atoms: P_4  and  O_7 
REMARK    4  A    between atoms: O_5  and  C_9 
REMARK    5  A    between atoms: O_6  and  C_10 
REMARK    6  A    between atoms: O_7  and  C_11 
REMARK    7  A    between atoms: C_9  and  C_12 
REMARK    8  A    between atoms: C_10  and  C_13 
REMARK    9  A    between atoms: C_11  and  C_14 
REMARK   10  A    between atoms: C_12  and  C_15 
REMARK   11  A    between atoms: C_13  and  C_16 
REMARK   12  A    between atoms: C_14  and  C_17 
ROOT
ATOM      1  P   UNL d   1       8.148 -11.020   3.467  0.00  0.00     0.477 P 
ATOM      2  O   UNL d   1       6.807 -10.354   3.583  0.00  0.00    -0.227 OA
ENDROOT
BRANCH   1   3
ATOM      3  O   UNL d   1       8.639 -11.274   1.943  0.00  0.00    -0.292 OA
BRANCH   3   4
ATOM      4  C   UNL d   1       8.612 -10.214   1.001  0.00  0.00     0.181 C 
BRANCH   4   5
ATOM      5  C   UNL d   1      10.046  -9.834   0.653  0.00  0.00     0.042 C 
BRANCH   5   6
ATOM      6  C   UNL d   1      10.474  -8.489   1.224  0.00  0.00     0.116 C 
ATOM      7 CL   UNL d   1       9.104  -7.589   1.911  0.00  0.00    -0.130 Cl
ENDBRANCH   5   6
ENDBRANCH   4   5
ENDBRANCH   3   4
ENDBRANCH   1   3
BRANCH   1   8
ATOM      8  O   UNL d   1       8.243 -12.476   4.171  0.00  0.00    -0.292 OA
BRANCH   8   9
ATOM      9  C   UNL d   1       8.307 -13.623   3.342  0.00  0.00     0.181 C 
BRANCH   9  10
ATOM     10  C   UNL d   1       9.120 -14.697   4.055  0.00  0.00     0.042 C 
BRANCH  10  11
ATOM     11  C   UNL d   1       9.040 -14.616   5.574  0.00  0.00     0.116 C 
ATOM     12 CL   UNL d   1      10.627 -14.293   6.308  0.00  0.00    -0.130 Cl
ENDBRANCH  10  11
ENDBRANCH   9  10
ENDBRANCH   8   9
ENDBRANCH   1   8
BRANCH   1  13
ATOM     13  O   UNL d   1       9.368 -10.204   4.154  0.00  0.00    -0.292 OA
BRANCH  13  14
ATOM     14  C   UNL d   1      10.394 -10.940   4.798  0.00  0.00     0.181 C 
BRANCH  14  15
ATOM     15  C   UNL d   1      11.602 -11.007   3.871  0.00  0.00     0.042 C 
BRANCH  15  16
ATOM     16  C   UNL d   1      12.051 -12.428   3.556  0.00  0.00     0.116 C 
ATOM     17 CL   UNL d   1      11.624 -12.909   1.898  0.00  0.00    -0.130 Cl
ENDBRANCH  15  16
ENDBRANCH  14  15
ENDBRANCH  13  14
ENDBRANCH   1  13
TORSDOF 12
ENDMDL
MODEL 7
REMARK VINA RESULT:       0.0     28.127     29.425
REMARK  12 active torsions:
REMARK  status: ('A' for Active; 'I' for Inactive)
REMARK    1  A    between atoms: P_4  and  O_5 
REMARK    2  A    between atoms: P_4  and  O_6 
REMARK    3  A    between atoms: P_4  and  O_7 
REMARK    4  A    between atoms: O_5  and  C_9 
REMARK    5  A    between atoms: O_6  and  C_10 
REMARK    6  A    between atoms: O_7  and  C_11 
REMARK    7  A    between atoms: C_9  and  C_12 
REMARK    8  A    between atoms: C_10  and  C_13 
REMARK    9  A    between atoms: C_11  and  C_14 
REMARK   10  A    between atoms: C_12  and  C_15 
REMARK   11  A    between atoms: C_13  and  C_16 
REMARK   12  A    between atoms: C_14  and  C_17 
ROOT
ATOM      1  P   UNL d   1       9.464   3.223 -15.705  0.00  0.00     0.477 P 
ATOM      2  O   UNL d   1       9.884   4.153 -16.808  0.00  0.00    -0.227 OA
ENDROOT
BRANCH   1   3
ATOM      3  O   UNL d   1      10.094   3.579 -14.254  0.00  0.00    -0.292 OA
BRANCH   3   4
ATOM      4  C   UNL d   1       9.251   3.684 -13.119  0.00  0.00     0.181 C 
BRANCH   4   5
ATOM      5  C   UNL d   1       9.376   2.406 -12.298  0.00  0.00     0.042 C 
BRANCH   5   6
ATOM      6  C   UNL d   1       8.444   2.362 -11.095  0.00  0.00     0.116 C 
ATOM      7 CL   UNL d   1       7.918   0.706 -10.719  0.00  0.00    -0.130 Cl
ENDBRANCH   5   6
ENDBRANCH   4   5
ENDBRANCH   3   4
ENDBRANCH   1   3
BRANCH   1   8
ATOM      8  O   UNL d   1       9.855   1.670 -15.946  0.00  0.00    -0.292 OA
BRANCH   8   9
ATOM      9  C   UNL d   1      11.123   1.216 -15.504  0.00  0.00     0.181 C 
BRANCH   9  10
ATOM     10  C   UNL d   1      10.933  -0.073 -14.713  0.00  0.00     0.042 C 
BRANCH  10  11
ATOM     11  C   UNL d   1       9.621  -0.786 -15.013  0.00  0.00     0.116 C 
ATOM     12 CL   UNL d   1       8.782  -1.289 -13.528  0.00  0.00    -0.130 Cl
ENDBRANCH  10  11
ENDBRANCH   9  10
ENDBRANCH   8   9
ENDBRANCH   1   8
BRANCH   1  13
ATOM     13  O   UNL d   1       7.866   3.160 -15.448  0.00  0.00    -0.292 OA
BRANCH  13  14
ATOM     14  C   UNL d   1       7.182   1.953 -15.739  0.00  0.00     0.181 C 
BRANCH  14  15
ATOM     15  C   UNL d   1       6.499   1.459 -14.471  0.00  0.00     0.042 C 
BRANCH  15  16
ATOM     16  C   UNL d   1       5.711   2.539 -13.742  0.00  0.00     0.116 C 
ATOM     17 CL   UNL d   1       4.953   1.922 -12.256  0.00  0.00    -0.130 Cl
ENDBRANCH  15  16
ENDBRANCH  14  15
ENDBRANCH  13  14
ENDBRANCH   1  13
TORSDOF 12
ENDMDL
MODEL 8
REMARK VINA RESULT:       0.0      9.884     11.075
REMARK  12 active torsions:
REMARK  status: ('A' for Active; 'I' for Inactive)
REMARK    1  A    between atoms: P_4  and  O_5 
REMARK    2  A    between atoms: P_4  and  O_6 
REMARK    3  A    between atoms: P_4  and  O_7 
REMARK    4  A    between atoms: O_5  and  C_9 
REMARK    5  A    between atoms: O_6  and  C_10 
REMARK    6  A    between atoms: O_7  and  C_11 
REMARK    7  A    between atoms: C_9  and  C_12 
REMARK    8  A    between atoms: C_10  and  C_13 
REMARK    9  A    between atoms: C_11  and  C_14 
REMARK   10  A    between atoms: C_12  and  C_15 
REMARK   11  A    between atoms: C_13  and  C_16 
REMARK   12  A    between atoms: C_14  and  C_17 
ROOT
ATOM      1  P   UNL d   1     -11.088 -15.056   3.072  0.00  0.00     0.477 P 
ATOM      2  O   UNL d   1      -9.875 -14.962   3.953  0.00  0.00    -0.227 OA
ENDROOT
BRANCH   1   3
ATOM      3  O   UNL d   1     -12.072 -13.770   3.150  0.00  0.00    -0.292 OA
BRANCH   3   4
ATOM      4  C   UNL d   1     -12.051 -12.795   2.121  0.00  0.00     0.181 C 
BRANCH   4   5
ATOM      5  C   UNL d   1     -13.475 -12.581   1.622  0.00  0.00     0.042 C 
BRANCH   5   6
ATOM      6  C   UNL d   1     -13.577 -12.452   0.108  0.00  0.00     0.116 C 
ATOM      7 CL   UNL d   1     -14.927 -13.401  -0.553  0.00  0.00    -0.130 Cl
ENDBRANCH   5   6
ENDBRANCH   4   5
ENDBRANCH   3   4
ENDBRANCH   1   3
BRANCH   1   8
ATOM      8  O   UNL d   1     -12.051 -16.322   3.380  0.00  0.00    -0.292 OA
BRANCH   8   9
ATOM      9  C   UNL d   1     -13.348 -16.074   3.893  0.00  0.00     0.181 C 
BRANCH   9  10
ATOM     10  C   UNL d   1     -14.374 -16.679   2.942  0.00  0.00     0.042 C 
BRANCH  10  11
ATOM     11  C   UNL d   1     -15.318 -15.653   2.327  0.00  0.00     0.116 C 
ATOM     12 CL   UNL d   1     -16.337 -16.364   1.056  0.00  0.00    -0.130 Cl
ENDBRANCH  10  11
ENDBRANCH   9  10
ENDBRANCH   8   9
ENDBRANCH   1   8
BRANCH   1  13
ATOM     13  O   UNL d   1     -10.764 -15.223   1.493  0.00  0.00    -0.292 OA
BRANCH  13  14
ATOM     14  C   UNL d   1     -11.230 -16.384   0.827  0.00  0.00     0.181 C 
BRANCH  14  15
ATOM     15  C   UNL d   1     -12.332 -15.981  -0.145  0.00  0.00     0.042 C 
BRANCH  15  16
ATOM     16  C   UNL d   1     -13.184 -17.151  -0.620  0.00  0.00     0.116 C 
ATOM     17 CL   UNL d   1     -14.321 -16.670  -1.900  0.00  0.00    -0.130 Cl
ENDBRANCH  15  16
ENDBRANCH  14  15
ENDBRANCH  13  14
ENDBRANCH   1  13
TORSDOF 12
ENDMDL
MODEL 9
REMARK VINA RESULT:       0.0      8.768     10.628
REMARK  12 active torsions:
REMARK  status: ('A' for Active; 'I' for Inactive)
REMARK    1  A    between atoms: P_4  and  O_5 
REMARK    2  A    between atoms: P_4  and  O_6 
REMARK    3  A    between atoms: P_4  and  O_7 
REMARK    4  A    between atoms: O_5  and  C_9 
REMARK    5  A    between atoms: O_6  and  C_10 
REMARK    6  A    between atoms: O_7  and  C_11 
REMARK    7  A    between atoms: C_9  and  C_12 
REMARK    8  A    between atoms: C_10  and  C_13 
REMARK    9  A    between atoms: C_11  and  C_14 
REMARK   10  A    between atoms: C_12  and  C_15 
REMARK   11  A    between atoms: C_13  and  C_16 
REMARK   12  A    between atoms: C_14  and  C_17 
ROOT
ATOM      1  P   UNL d   1      -3.596  -4.158   7.858  0.00  0.00     0.477 P 
ATOM      2  O   UNL d   1      -4.829  -5.012   7.934  0.00  0.00    -0.227 OA
ENDROOT
BRANCH   1   3
ATOM      3  O   UNL d   1      -3.870  -2.627   7.404  0.00  0.00    -0.292 OA
BRANCH   3   4
ATOM      4  C   UNL d   1      -3.671  -2.238   6.055  0.00  0.00     0.181 C 
BRANCH   4   5
ATOM      5  C   UNL d   1      -4.990  -2.388   5.305  0.00  0.00     0.042 C 
BRANCH   5   6
ATOM      6  C   UNL d   1      -4.940  -3.419   4.186  0.00  0.00     0.116 C 
ATOM      7 CL   UNL d   1      -5.828  -4.901   4.605  0.00  0.00    -0.130 Cl
ENDBRANCH   5   6
ENDBRANCH   4   5
ENDBRANCH   3   4
ENDBRANCH   1   3
BRANCH   1   8
ATOM      8  O   UNL d   1      -2.469  -4.691   6.824  0.00  0.00    -0.292 OA
BRANCH   8   9
ATOM      9  C   UNL d   1      -2.691  -5.922   6.158  0.00  0.00     0.181 C 
BRANCH   9  10
ATOM     10  C   UNL d   1      -2.136  -5.820   4.743  0.00  0.00     0.042 C 
BRANCH  10  11
ATOM     11  C   UNL d   1      -0.961  -4.860   4.615  0.00  0.00     0.116 C 
ATOM     12 CL   UNL d   1      -1.335  -3.487   3.549  0.00  0.00    -0.130 Cl
ENDBRANCH  10  11
ENDBRANCH   9  10
ENDBRANCH   8   9
ENDBRANCH   1   8
BRANCH   1  13
ATOM     13  O   UNL d   1      -2.778  -4.028   9.250  0.00  0.00    -0.292 OA
BRANCH  13  14
ATOM     14  C   UNL d   1      -2.464  -2.732   9.730  0.00  0.00     0.181 C 
BRANCH  14  15
ATOM     15  C   UNL d   1      -0.976  -2.480   9.523  0.00  0.00     0.042 C 
BRANCH  15  16
ATOM     16  C   UNL d   1      -0.677  -1.425   8.466  0.00  0.00     0.116 C 
ATOM     17 CL   UNL d   1      -0.136  -2.150   6.935  0.00  0.00    -0.130 Cl
ENDBRANCH  15  16
ENDBRANCH  14  15
ENDBRANCH  13  14
ENDBRANCH   1  13
TORSDOF 12
ENDMDL
