MODEL 1
REMARK VINA RESULT:      -0.0      0.000      0.000
REMARK  2 active torsions:
REMARK  status: ('A' for Active; 'I' for Inactive)
REMARK    1  A    between atoms: O_1  and  C_7 
REMARK    2  A    between atoms: O_2  and  C_20 
ROOT
ATOM      1  C   UNL d   1      14.467  15.003  17.013  0.00  0.00    -0.014 C 
ATOM      2  C   UNL d   1      14.657  14.781  18.526  0.00  0.00     0.001 C 
ATOM      3  C   UNL d   1      15.145  13.368  18.845  0.00  0.00    -0.001 C 
ATOM      4  C   UNL d   1      16.532  13.154  18.166  0.00  0.00     0.023 C 
ATOM      5  C   UNL d   1      13.925  16.446  17.039  0.00  0.00     0.126 C 
ATOM      6  C   UNL d   1      15.831  14.838  16.331  0.00  0.00     0.013 C 
ATOM      7  C   UNL d   1      13.342  15.272  19.126  0.00  0.00     0.008 C 
ATOM      8  C   UNL d   1      16.469  13.472  16.648  0.00  0.00     0.010 C 
ATOM      9  C   UNL d   1      12.938  16.452  18.223  0.00  0.00     0.033 C 
ATOM     10  C   UNL d   1      15.283  13.120  20.349  0.00  0.00     0.010 C 
ATOM     11  C   UNL d   1      13.441  14.055  16.341  0.00  0.00     0.018 C 
ATOM     12  C   UNL d   1      17.114  11.787  18.517  0.00  0.00    -0.047 A 
ATOM     13  C   UNL d   1      15.633  11.655  20.601  0.00  0.00     0.039 C 
ATOM     14  C   UNL d   1      16.709  11.116  19.691  0.00  0.00    -0.049 A 
ATOM     15  C   UNL d   1      18.127  11.206  17.735  0.00  0.00     0.011 A 
ATOM     16  C   UNL d   1      17.280   9.872  20.020  0.00  0.00     0.044 A 
ATOM     17  C   UNL d   1      18.692   9.976  18.077  0.00  0.00     0.037 A 
ATOM     18  C   UNL d   1      18.265   9.306  19.217  0.00  0.00     0.066 A 
ENDROOT
BRANCH   5  19
ATOM     19  O   UNL d   1      13.297  16.823  15.830  0.00  0.00    -0.395 OA
ATOM     20  H   UNL d   1      13.673  16.273  15.121  0.00  0.00     0.210 HD
ENDBRANCH   5  19
BRANCH  18  21
ATOM     21  O   UNL d   1      18.811   8.106  19.551  0.00  0.00    -0.361 OA
ATOM     22  H   UNL d   1      19.508   7.886  18.907  0.00  0.00     0.217 HD
ENDBRANCH  18  21
TORSDOF 2
ENDMDL
MODEL 2
REMARK VINA RESULT:      -0.0      8.334      9.978
REMARK  2 active torsions:
REMARK  status: ('A' for Active; 'I' for Inactive)
REMARK    1  A    between atoms: O_1  and  C_7 
REMARK    2  A    between atoms: O_2  and  C_20 
ROOT
ATOM      1  C   UNL d   1      12.381   3.482  13.691  0.00  0.00    -0.014 C 
ATOM      2  C   UNL d   1      11.370   4.130  14.657  0.00  0.00     0.001 C 
ATOM      3  C   UNL d   1      12.008   4.499  15.997  0.00  0.00    -0.001 C 
ATOM      4  C   UNL d   1      13.139   5.540  15.741  0.00  0.00     0.023 C 
ATOM      5  C   UNL d   1      11.438   3.181  12.510  0.00  0.00     0.126 C 
ATOM      6  C   UNL d   1      13.482   4.507  13.393  0.00  0.00     0.013 C 
ATOM      7  C   UNL d   1      10.186   3.167  14.633  0.00  0.00     0.008 C 
ATOM      8  C   UNL d   1      14.150   5.022  14.682  0.00  0.00     0.010 C 
ATOM      9  C   UNL d   1      10.156   2.652  13.181  0.00  0.00     0.033 C 
ATOM     10  C   UNL d   1      11.000   5.091  16.984  0.00  0.00     0.010 C 
ATOM     11  C   UNL d   1      13.029   2.173  14.210  0.00  0.00     0.018 C 
ATOM     12  C   UNL d   1      13.761   6.014  17.052  0.00  0.00    -0.047 A 
ATOM     13  C   UNL d   1      11.667   5.302  18.340  0.00  0.00     0.039 C 
ATOM     14  C   UNL d   1      13.036   5.933  18.260  0.00  0.00    -0.049 A 
ATOM     15  C   UNL d   1      15.028   6.622  17.077  0.00  0.00     0.011 A 
ATOM     16  C   UNL d   1      13.608   6.406  19.455  0.00  0.00     0.044 A 
ATOM     17  C   UNL d   1      15.582   7.096  18.268  0.00  0.00     0.037 A 
ATOM     18  C   UNL d   1      14.875   6.983  19.459  0.00  0.00     0.066 A 
ENDROOT
BRANCH   5  19
ATOM     19  O   UNL d   1      11.976   2.246  11.596  0.00  0.00    -0.395 OA
ATOM     20  H   UNL d   1      12.497   2.743  10.942  0.00  0.00     0.210 HD
ENDBRANCH   5  19
BRANCH  18  21
ATOM     21  O   UNL d   1      15.413   7.441  20.620  0.00  0.00    -0.361 OA
ATOM     22  H   UNL d   1      16.351   7.183  20.657  0.00  0.00     0.217 HD
ENDBRANCH  18  21
TORSDOF 2
ENDMDL
MODEL 3
REMARK VINA RESULT:       0.0     31.027     31.394
REMARK  2 active torsions:
REMARK  status: ('A' for Active; 'I' for Inactive)
REMARK    1  A    between atoms: O_1  and  C_7 
REMARK    2  A    between atoms: O_2  and  C_20 
ROOT
ATOM      1  C   UNL d   1      -0.934 -10.631   5.302  0.00  0.00    -0.014 C 
ATOM      2  C   UNL d   1      -0.510 -10.792   6.775  0.00  0.00     0.001 C 
ATOM      3  C   UNL d   1       0.483 -11.938   6.968  0.00  0.00    -0.001 C 
ATOM      4  C   UNL d   1       1.770 -11.626   6.145  0.00  0.00     0.023 C 
ATOM      5  C   UNL d   1      -1.949  -9.482   5.459  0.00  0.00     0.126 C 
ATOM      6  C   UNL d   1       0.313 -10.282   4.481  0.00  0.00     0.013 C 
ATOM      7  C   UNL d   1      -1.838 -10.818   7.527  0.00  0.00     0.008 C 
ATOM      8  C   UNL d   1       1.428 -11.330   4.659  0.00  0.00     0.010 C 
ATOM      9  C   UNL d   1      -2.735  -9.850   6.733  0.00  0.00     0.033 C 
ATOM     10  C   UNL d   1       0.867 -12.142   8.434  0.00  0.00     0.010 C 
ATOM     11  C   UNL d   1      -1.621 -11.875   4.684  0.00  0.00     0.018 C 
ATOM     12  C   UNL d   1       2.837 -12.696   6.363  0.00  0.00    -0.047 A 
ATOM     13  C   UNL d   1       1.742 -13.385   8.572  0.00  0.00     0.039 C 
ATOM     14  C   UNL d   1       2.832 -13.486   7.532  0.00  0.00    -0.049 A 
ATOM     15  C   UNL d   1       3.897 -12.860   5.454  0.00  0.00     0.011 A 
ATOM     16  C   UNL d   1       3.842 -14.444   7.736  0.00  0.00     0.044 A 
ATOM     17  C   UNL d   1       4.899 -13.808   5.672  0.00  0.00     0.037 A 
ATOM     18  C   UNL d   1       4.870 -14.604   6.810  0.00  0.00     0.066 A 
ENDROOT
BRANCH   5  19
ATOM     19  O   UNL d   1      -2.801  -9.338   4.340  0.00  0.00    -0.395 OA
ATOM     20  H   UNL d   1      -3.366  -8.562   4.500  0.00  0.00     0.210 HD
ENDBRANCH   5  19
BRANCH  18  21
ATOM     21  O   UNL d   1       5.842 -15.530   7.023  0.00  0.00    -0.361 OA
ATOM     22  H   UNL d   1       5.826 -15.794   7.960  0.00  0.00     0.217 HD
ENDBRANCH  18  21
TORSDOF 2
ENDMDL
MODEL 4
REMARK VINA RESULT:       0.0     35.077     36.481
REMARK  2 active torsions:
REMARK  status: ('A' for Active; 'I' for Inactive)
REMARK    1  A    between atoms: O_1  and  C_7 
REMARK    2  A    between atoms: O_2  and  C_20 
ROOT
ATOM      1  C   UNL d   1      -6.671 -16.729   9.004  0.00  0.00    -0.014 C 
ATOM      2  C   UNL d   1      -5.345 -16.084   9.455  0.00  0.00     0.001 C 
ATOM      3  C   UNL d   1      -5.385 -14.559   9.364  0.00  0.00    -0.001 C 
ATOM      4  C   UNL d   1      -6.504 -14.032  10.313  0.00  0.00     0.023 C 
ATOM      5  C   UNL d   1      -6.286 -18.214   9.147  0.00  0.00     0.126 C 
ATOM      6  C   UNL d   1      -7.779 -16.255   9.953  0.00  0.00     0.013 C 
ATOM      7  C   UNL d   1      -4.289 -16.853   8.665  0.00  0.00     0.008 C 
ATOM      8  C   UNL d   1      -7.864 -14.718  10.013  0.00  0.00     0.010 C 
ATOM      9  C   UNL d   1      -4.853 -18.284   8.585  0.00  0.00     0.033 C 
ATOM     10  C   UNL d   1      -4.055 -13.912   9.755  0.00  0.00     0.010 C 
ATOM     11  C   UNL d   1      -7.082 -16.417   7.543  0.00  0.00     0.018 C 
ATOM     12  C   UNL d   1      -6.539 -12.505  10.332  0.00  0.00    -0.047 A 
ATOM     13  C   UNL d   1      -4.118 -12.407   9.506  0.00  0.00     0.039 C 
ATOM     14  C   UNL d   1      -5.392 -11.758   9.989  0.00  0.00    -0.049 A 
ATOM     15  C   UNL d   1      -7.678 -11.810  10.775  0.00  0.00     0.011 A 
ATOM     16  C   UNL d   1      -5.429 -10.352  10.045  0.00  0.00     0.044 A 
ATOM     17  C   UNL d   1      -7.699 -10.415  10.834  0.00  0.00     0.037 A 
ATOM     18  C   UNL d   1      -6.576  -9.685  10.464  0.00  0.00     0.066 A 
ENDROOT
BRANCH   5  19
ATOM     19  O   UNL d   1      -7.163 -19.082   8.457  0.00  0.00    -0.395 OA
ATOM     20  H   UNL d   1      -8.018 -18.625   8.370  0.00  0.00     0.210 HD
ENDBRANCH   5  19
BRANCH  18  21
ATOM     21  O   UNL d   1      -6.595  -8.327  10.518  0.00  0.00    -0.361 OA
ATOM     22  H   UNL d   1      -5.695  -8.007  10.709  0.00  0.00     0.217 HD
ENDBRANCH  18  21
TORSDOF 2
ENDMDL
MODEL 5
REMARK VINA RESULT:       0.0      6.078      8.814
REMARK  2 active torsions:
REMARK  status: ('A' for Active; 'I' for Inactive)
REMARK    1  A    between atoms: O_1  and  C_7 
REMARK    2  A    between atoms: O_2  and  C_20 
ROOT
ATOM      1  C   UNL d   1      16.613   7.783  17.423  0.00  0.00    -0.014 C 
ATOM      2  C   UNL d   1      17.493   7.033  16.404  0.00  0.00     0.001 C 
ATOM      3  C   UNL d   1      16.680   6.484  15.232  0.00  0.00    -0.001 C 
ATOM      4  C   UNL d   1      16.016   7.678  14.482  0.00  0.00     0.023 C 
ATOM      5  C   UNL d   1      17.688   8.135  18.469  0.00  0.00     0.126 C 
ATOM      6  C   UNL d   1      15.983   8.989  16.713  0.00  0.00     0.013 C 
ATOM      7  C   UNL d   1      18.299   6.070  17.271  0.00  0.00     0.008 C 
ATOM      8  C   UNL d   1      15.198   8.568  15.456  0.00  0.00     0.010 C 
ATOM      9  C   UNL d   1      18.539   6.855  18.575  0.00  0.00     0.033 C 
ATOM     10  C   UNL d   1      17.535   5.689  14.244  0.00  0.00     0.010 C 
ATOM     11  C   UNL d   1      15.493   6.928  18.068  0.00  0.00     0.018 C 
ATOM     12  C   UNL d   1      15.255   7.202  13.247  0.00  0.00    -0.047 A 
ATOM     13  C   UNL d   1      16.643   5.051  13.182  0.00  0.00     0.039 C 
ATOM     14  C   UNL d   1      15.593   5.981  12.624  0.00  0.00    -0.049 A 
ATOM     15  C   UNL d   1      14.266   8.002  12.650  0.00  0.00     0.011 A 
ATOM     16  C   UNL d   1      14.907   5.572  11.466  0.00  0.00     0.044 A 
ATOM     17  C   UNL d   1      13.598   7.588  11.495  0.00  0.00     0.037 A 
ATOM     18  C   UNL d   1      13.914   6.371  10.906  0.00  0.00     0.066 A 
ENDROOT
BRANCH   5  19
ATOM     19  O   UNL d   1      17.143   8.508  19.719  0.00  0.00    -0.395 OA
ATOM     20  H   UNL d   1      17.491   7.890  20.386  0.00  0.00     0.210 HD
ENDBRANCH   5  19
BRANCH  18  21
ATOM     21  O   UNL d   1      13.263   5.964   9.784  0.00  0.00    -0.361 OA
ATOM     22  H   UNL d   1      13.901   5.535   9.187  0.00  0.00     0.217 HD
ENDBRANCH  18  21
TORSDOF 2
ENDMDL
MODEL 6
REMARK VINA RESULT:       0.0     19.429     20.292
REMARK  2 active torsions:
REMARK  status: ('A' for Active; 'I' for Inactive)
REMARK    1  A    between atoms: O_1  and  C_7 
REMARK    2  A    between atoms: O_2  and  C_20 
ROOT
ATOM      1  C   UNL d   1      -4.619   8.629  13.761  0.00  0.00    -0.014 C 
ATOM      2  C   UNL d   1      -4.112   8.172  15.143  0.00  0.00     0.001 C 
ATOM      3  C   UNL d   1      -3.539   6.755  15.109  0.00  0.00    -0.001 C 
ATOM      4  C   UNL d   1      -2.320   6.735  14.137  0.00  0.00     0.023 C 
ATOM      5  C   UNL d   1      -5.174  10.014  14.145  0.00  0.00     0.126 C 
ATOM      6  C   UNL d   1      -3.424   8.655  12.799  0.00  0.00     0.013 C 
ATOM      7  C   UNL d   1      -5.284   8.482  16.072  0.00  0.00     0.008 C 
ATOM      8  C   UNL d   1      -2.706   7.293  12.740  0.00  0.00     0.010 C 
ATOM      9  C   UNL d   1      -5.892   9.771  15.486  0.00  0.00     0.033 C 
ATOM     10  C   UNL d   1      -3.085   6.271  16.487  0.00  0.00     0.010 C 
ATOM     11  C   UNL d   1      -5.742   7.748  13.157  0.00  0.00     0.018 C 
ATOM     12  C   UNL d   1      -1.649   5.363  14.122  0.00  0.00    -0.047 A 
ATOM     13  C   UNL d   1      -2.659   4.808  16.407  0.00  0.00     0.039 C 
ATOM     14  C   UNL d   1      -1.786   4.486  15.219  0.00  0.00    -0.049 A 
ATOM     15  C   UNL d   1      -0.810   4.977  13.063  0.00  0.00     0.011 A 
ATOM     16  C   UNL d   1      -1.133   3.240  15.207  0.00  0.00     0.044 A 
ATOM     17  C   UNL d   1      -0.160   3.741  13.066  0.00  0.00     0.037 A 
ATOM     18  C   UNL d   1      -0.325   2.870  14.135  0.00  0.00     0.066 A 
ENDROOT
BRANCH   5  19
ATOM     19  O   UNL d   1      -6.048  10.550  13.171  0.00  0.00    -0.395 OA
ATOM     20  H   UNL d   1      -6.418   9.803  12.668  0.00  0.00     0.210 HD
ENDBRANCH   5  19
BRANCH  18  21
ATOM     21  O   UNL d   1       0.304   1.664  14.140  0.00  0.00    -0.361 OA
ATOM     22  H   UNL d   1       0.487   1.400  13.221  0.00  0.00     0.217 HD
ENDBRANCH  18  21
TORSDOF 2
ENDMDL
MODEL 7
REMARK VINA RESULT:       0.0     30.140     31.891
REMARK  2 active torsions:
REMARK  status: ('A' for Active; 'I' for Inactive)
REMARK    1  A    between atoms: O_1  and  C_7 
REMARK    2  A    between atoms: O_2  and  C_20 
ROOT
ATOM      1  C   UNL d   1      -6.617  -9.505   8.210  0.00  0.00    -0.014 C 
ATOM      2  C   UNL d   1      -6.990  -8.508   9.325  0.00  0.00     0.001 C 
ATOM      3  C   UNL d   1      -6.356  -7.134   9.108  0.00  0.00    -0.001 C 
ATOM      4  C   UNL d   1      -6.884  -6.548   7.764  0.00  0.00     0.023 C 
ATOM      5  C   UNL d   1      -7.335 -10.758   8.747  0.00  0.00     0.126 C 
ATOM      6  C   UNL d   1      -7.166  -8.965   6.884  0.00  0.00     0.013 C 
ATOM      7  C   UNL d   1      -6.686  -9.278  10.607  0.00  0.00     0.008 C 
ATOM      8  C   UNL d   1      -6.659  -7.540   6.591  0.00  0.00     0.010 C 
ATOM      9  C   UNL d   1      -7.044 -10.735  10.261  0.00  0.00     0.033 C 
ATOM     10  C   UNL d   1      -6.674  -6.154  10.238  0.00  0.00     0.010 C 
ATOM     11  C   UNL d   1      -5.098  -9.775   8.062  0.00  0.00     0.018 C 
ATOM     12  C   UNL d   1      -6.351  -5.137   7.529  0.00  0.00    -0.047 A 
ATOM     13  C   UNL d   1      -5.897  -4.857  10.032  0.00  0.00     0.039 C 
ATOM     14  C   UNL d   1      -5.930  -4.340   8.615  0.00  0.00    -0.049 A 
ATOM     15  C   UNL d   1      -6.349  -4.565   6.245  0.00  0.00     0.011 A 
ATOM     16  C   UNL d   1      -5.474  -3.028   8.387  0.00  0.00     0.044 A 
ATOM     17  C   UNL d   1      -5.902  -3.259   6.032  0.00  0.00     0.037 A 
ATOM     18  C   UNL d   1      -5.459  -2.492   7.102  0.00  0.00     0.066 A 
ENDROOT
BRANCH   5  19
ATOM     19  O   UNL d   1      -6.883 -11.955   8.145  0.00  0.00    -0.395 OA
ATOM     20  H   UNL d   1      -5.979 -12.121   8.466  0.00  0.00     0.210 HD
ENDBRANCH   5  19
BRANCH  18  21
ATOM     21  O   UNL d   1      -5.021  -1.221   6.898  0.00  0.00    -0.361 OA
ATOM     22  H   UNL d   1      -4.530  -0.927   7.686  0.00  0.00     0.217 HD
ENDBRANCH  18  21
TORSDOF 2
ENDMDL
MODEL 8
REMARK VINA RESULT:       0.0     23.434     24.238
REMARK  2 active torsions:
REMARK  status: ('A' for Active; 'I' for Inactive)
REMARK    1  A    between atoms: O_1  and  C_7 
REMARK    2  A    between atoms: O_2  and  C_20 
ROOT
ATOM      1  C   UNL d   1      -7.085   8.268  13.038  0.00  0.00    -0.014 C 
ATOM      2  C   UNL d   1      -6.681   6.900  13.621  0.00  0.00     0.001 C 
ATOM      3  C   UNL d   1      -6.619   5.811  12.551  0.00  0.00    -0.001 C 
ATOM      4  C   UNL d   1      -5.538   6.206  11.499  0.00  0.00     0.023 C 
ATOM      5  C   UNL d   1      -7.119   9.093  14.339  0.00  0.00     0.126 C 
ATOM      6  C   UNL d   1      -6.010   8.694  12.030  0.00  0.00     0.013 C 
ATOM      7  C   UNL d   1      -7.622   6.728  14.810  0.00  0.00     0.008 C 
ATOM      8  C   UNL d   1      -5.795   7.630  10.937  0.00  0.00     0.010 C 
ATOM      9  C   UNL d   1      -7.796   8.157  15.358  0.00  0.00     0.033 C 
ATOM     10  C   UNL d   1      -6.273   4.437  13.129  0.00  0.00     0.010 C 
ATOM     11  C   UNL d   1      -8.473   8.295  12.347  0.00  0.00     0.018 C 
ATOM     12  C   UNL d   1      -5.368   5.115  10.445  0.00  0.00    -0.047 A 
ATOM     13  C   UNL d   1      -6.369   3.377  12.035  0.00  0.00     0.039 C 
ATOM     14  C   UNL d   1      -5.726   3.780  10.731  0.00  0.00    -0.049 A 
ATOM     15  C   UNL d   1      -4.771   5.392   9.202  0.00  0.00     0.011 A 
ATOM     16  C   UNL d   1      -5.531   2.779   9.761  0.00  0.00     0.044 A 
ATOM     17  C   UNL d   1      -4.575   4.388   8.252  0.00  0.00     0.037 A 
ATOM     18  C   UNL d   1      -4.959   3.082   8.529  0.00  0.00     0.066 A 
ENDROOT
BRANCH   5  19
ATOM     19  O   UNL d   1      -7.819  10.314  14.202  0.00  0.00    -0.395 OA
ATOM     20  H   UNL d   1      -7.490  10.751  13.397  0.00  0.00     0.210 HD
ENDBRANCH   5  19
BRANCH  18  21
ATOM     21  O   UNL d   1      -4.772   2.103   7.604  0.00  0.00    -0.361 OA
ATOM     22  H   UNL d   1      -3.997   2.326   7.060  0.00  0.00     0.217 HD
ENDBRANCH  18  21
TORSDOF 2
ENDMDL
MODEL 9
REMARK VINA RESULT:       0.0     19.079     20.669
REMARK  2 active torsions:
REMARK  status: ('A' for Active; 'I' for Inactive)
REMARK    1  A    between atoms: O_1  and  C_7 
REMARK    2  A    between atoms: O_2  and  C_20 
ROOT
ATOM      1  C   UNL d   1      -5.753   9.664  13.391  0.00  0.00    -0.014 C 
ATOM      2  C   UNL d   1      -4.725   9.321  14.488  0.00  0.00     0.001 C 
ATOM      3  C   UNL d   1      -3.831   8.146  14.093  0.00  0.00    -0.001 C 
ATOM      4  C   UNL d   1      -3.032   8.536  12.812  0.00  0.00     0.023 C 
ATOM      5  C   UNL d   1      -6.510  10.799  14.107  0.00  0.00     0.126 C 
ATOM      6  C   UNL d   1      -4.985  10.091  12.134  0.00  0.00     0.013 C 
ATOM      7  C   UNL d   1      -5.574   9.222  15.753  0.00  0.00     0.008 C 
ATOM      8  C   UNL d   1      -3.982   9.014  11.681  0.00  0.00     0.010 C 
ATOM      9  C   UNL d   1      -6.664  10.292  15.553  0.00  0.00     0.033 C 
ATOM     10  C   UNL d   1      -2.845   7.761  15.197  0.00  0.00     0.010 C 
ATOM     11  C   UNL d   1      -6.726   8.513  13.029  0.00  0.00     0.018 C 
ATOM     12  C   UNL d   1      -2.054   7.433  12.413  0.00  0.00    -0.047 A 
ATOM     13  C   UNL d   1      -2.086   6.499  14.797  0.00  0.00     0.039 C 
ATOM     14  C   UNL d   1      -1.587   6.508  13.372  0.00  0.00    -0.049 A 
ATOM     15  C   UNL d   1      -1.528   7.364  11.112  0.00  0.00     0.011 A 
ATOM     16  C   UNL d   1      -0.660   5.519  12.998  0.00  0.00     0.044 A 
ATOM     17  C   UNL d   1      -0.601   6.383  10.755  0.00  0.00     0.037 A 
ATOM     18  C   UNL d   1      -0.170   5.456  11.696  0.00  0.00     0.066 A 
ENDROOT
BRANCH   5  19
ATOM     19  O   UNL d   1      -7.762  11.088  13.516  0.00  0.00    -0.395 OA
ATOM     20  H   UNL d   1      -8.055  10.288  13.046  0.00  0.00     0.210 HD
ENDBRANCH   5  19
BRANCH  18  21
ATOM     21  O   UNL d   1       0.730   4.498  11.351  0.00  0.00    -0.361 OA
ATOM     22  H   UNL d   1       0.673   4.341  10.392  0.00  0.00     0.217 HD
ENDBRANCH  18  21
TORSDOF 2
ENDMDL
