MODEL 1
REMARK VINA RESULT:      -0.0      0.000      0.000
REMARK  3 active torsions:
REMARK  status: ('A' for Active; 'I' for Inactive)
REMARK    1  A    between atoms: C_11  and  C_12 
REMARK    2  A    between atoms: C_11  and  C_13 
REMARK    3  A    between atoms: C_12  and  C_14 
ROOT
ATOM      1  C   UNL d   1      13.669  -8.920   2.696  0.00  0.00     0.045 C 
ENDROOT
BRANCH   1   2
ATOM      2  C   UNL d   1      12.848  -9.846   1.783  0.00  0.00     0.045 C 
BRANCH   2   3
ATOM      3  C   UNL d   1      12.715 -11.250   2.319  0.00  0.00    -0.020 A 
ATOM      4  C   UNL d   1      13.484 -12.273   1.774  0.00  0.00     0.037 A 
ATOM      5 BR   UNL d   1      14.693 -11.837   0.349  0.00  0.00    -0.049 Br
ATOM      6  C   UNL d   1      13.361 -13.570   2.267  0.00  0.00     0.047 A 
ATOM      7 BR   UNL d   1      14.425 -14.979   1.503  0.00  0.00    -0.048 Br
ATOM      8  C   UNL d   1      12.468 -13.841   3.304  0.00  0.00     0.048 A 
ATOM      9 BR   UNL d   1      12.296 -15.632   3.986  0.00  0.00    -0.048 Br
ATOM     10  C   UNL d   1      11.698 -12.810   3.847  0.00  0.00     0.047 A 
ATOM     11 BR   UNL d   1      10.464 -13.165   5.280  0.00  0.00    -0.048 Br
ATOM     12  C   UNL d   1      11.822 -11.512   3.352  0.00  0.00     0.037 A 
ATOM     13 BR   UNL d   1      10.793 -10.055   4.056  0.00  0.00    -0.049 Br
ENDBRANCH   2   3
ENDBRANCH   1   2
BRANCH   1  14
ATOM     14  C   UNL d   1      15.144  -8.949   2.416  0.00  0.00    -0.020 A 
ATOM     15  C   UNL d   1      16.001  -9.648   3.265  0.00  0.00     0.037 A 
ATOM     16 BR   UNL d   1      15.234 -10.553   4.772  0.00  0.00    -0.049 Br
ATOM     17  C   UNL d   1      17.372  -9.673   3.007  0.00  0.00     0.047 A 
ATOM     18 BR   UNL d   1      18.541 -10.639   4.192  0.00  0.00    -0.048 Br
ATOM     19  C   UNL d   1      17.886  -8.999   1.900  0.00  0.00     0.048 A 
ATOM     20 BR   UNL d   1      19.777  -9.034   1.543  0.00  0.00    -0.048 Br
ATOM     21  C   UNL d   1      17.028  -8.299   1.050  0.00  0.00     0.047 A 
ATOM     22 BR   UNL d   1      17.719  -7.366  -0.484  0.00  0.00    -0.048 Br
ATOM     23  C   UNL d   1      15.657  -8.274   1.309  0.00  0.00     0.037 A 
ATOM     24 BR   UNL d   1      14.427  -7.330   0.180  0.00  0.00    -0.049 Br
ENDBRANCH   1  14
TORSDOF 3
ENDMDL
MODEL 2
REMARK VINA RESULT:      -0.0     31.324     33.825
REMARK  3 active torsions:
REMARK  status: ('A' for Active; 'I' for Inactive)
REMARK    1  A    between atoms: C_11  and  C_12 
REMARK    2  A    between atoms: C_11  and  C_13 
REMARK    3  A    between atoms: C_12  and  C_14 
ROOT
ATOM      1  C   UNL d   1     -14.325   2.449  -2.886  0.00  0.00     0.045 C 
ENDROOT
BRANCH   1   2
ATOM      2  C   UNL d   1     -12.932   2.756  -3.459  0.00  0.00     0.045 C 
BRANCH   2   3
ATOM      3  C   UNL d   1     -12.747   4.204  -3.839  0.00  0.00    -0.020 A 
ATOM      4  C   UNL d   1     -12.794   4.578  -5.178  0.00  0.00     0.037 A 
ATOM      5 BR   UNL d   1     -13.098   3.212  -6.491  0.00  0.00    -0.049 Br
ATOM      6  C   UNL d   1     -12.622   5.915  -5.530  0.00  0.00     0.047 A 
ATOM      7 BR   UNL d   1     -12.684   6.422  -7.385  0.00  0.00    -0.048 Br
ATOM      8  C   UNL d   1     -12.403   6.875  -4.541  0.00  0.00     0.048 A 
ATOM      9 BR   UNL d   1     -12.165   8.722  -5.026  0.00  0.00    -0.048 Br
ATOM     10  C   UNL d   1     -12.356   6.494  -3.199  0.00  0.00     0.047 A 
ATOM     11 BR   UNL d   1     -12.058   7.804  -1.822  0.00  0.00    -0.048 Br
ATOM     12  C   UNL d   1     -12.529   5.155  -2.848  0.00  0.00     0.037 A 
ATOM     13 BR   UNL d   1     -12.475   4.569  -1.023  0.00  0.00    -0.049 Br
ENDBRANCH   2   3
ENDBRANCH   1   2
BRANCH   1  14
ATOM     14  C   UNL d   1     -15.344   2.095  -3.931  0.00  0.00    -0.020 A 
ATOM     15  C   UNL d   1     -16.305   3.031  -4.312  0.00  0.00     0.037 A 
ATOM     16 BR   UNL d   1     -16.273   4.751  -3.465  0.00  0.00    -0.049 Br
ATOM     17  C   UNL d   1     -17.254   2.702  -5.282  0.00  0.00     0.047 A 
ATOM     18 BR   UNL d   1     -18.577   4.002  -5.791  0.00  0.00    -0.048 Br
ATOM     19  C   UNL d   1     -17.240   1.438  -5.870  0.00  0.00     0.048 A 
ATOM     20 BR   UNL d   1     -18.548   0.984  -7.208  0.00  0.00    -0.048 Br
ATOM     21  C   UNL d   1     -16.278   0.501  -5.489  0.00  0.00     0.047 A 
ATOM     22 BR   UNL d   1     -16.242  -1.246  -6.293  0.00  0.00    -0.048 Br
ATOM     23  C   UNL d   1     -15.330   0.831  -4.520  0.00  0.00     0.037 A 
ATOM     24 BR   UNL d   1     -13.983  -0.411  -3.952  0.00  0.00    -0.049 Br
ENDBRANCH   1  14
TORSDOF 3
ENDMDL
MODEL 3
REMARK VINA RESULT:      -0.0     22.204     25.110
REMARK  3 active torsions:
REMARK  status: ('A' for Active; 'I' for Inactive)
REMARK    1  A    between atoms: C_11  and  C_12 
REMARK    2  A    between atoms: C_11  and  C_13 
REMARK    3  A    between atoms: C_12  and  C_14 
ROOT
ATOM      1  C   UNL d   1      -2.979  -0.500  -7.753  0.00  0.00     0.045 C 
ENDROOT
BRANCH   1   2
ATOM      2  C   UNL d   1      -1.958  -0.597  -8.898  0.00  0.00     0.045 C 
BRANCH   2   3
ATOM      3  C   UNL d   1      -2.358   0.187 -10.124  0.00  0.00    -0.020 A 
ATOM      4  C   UNL d   1      -2.866  -0.480 -11.234  0.00  0.00     0.037 A 
ATOM      5 BR   UNL d   1      -3.036  -2.389 -11.146  0.00  0.00    -0.049 Br
ATOM      6  C   UNL d   1      -3.233   0.243 -12.368  0.00  0.00     0.047 A 
ATOM      7 BR   UNL d   1      -3.930  -0.688 -13.900  0.00  0.00    -0.048 Br
ATOM      8  C   UNL d   1      -3.090   1.630 -12.387  0.00  0.00     0.048 A 
ATOM      9 BR   UNL d   1      -3.598   2.630 -13.952  0.00  0.00    -0.048 Br
ATOM     10  C   UNL d   1      -2.580   2.294 -11.270  0.00  0.00     0.047 A 
ATOM     11 BR   UNL d   1      -2.379   4.208 -11.278  0.00  0.00    -0.048 Br
ATOM     12  C   UNL d   1      -2.212   1.569 -10.137  0.00  0.00     0.037 A 
ATOM     13 BR   UNL d   1      -1.504   2.422  -8.572  0.00  0.00    -0.049 Br
ENDBRANCH   2   3
ENDBRANCH   1   2
BRANCH   1  14
ATOM     14  C   UNL d   1      -4.062  -1.538  -7.818  0.00  0.00    -0.020 A 
ATOM     15  C   UNL d   1      -5.338  -1.188  -8.259  0.00  0.00     0.037 A 
ATOM     16 BR   UNL d   1      -5.646   0.635  -8.767  0.00  0.00    -0.049 Br
ATOM     17  C   UNL d   1      -6.345  -2.152  -8.317  0.00  0.00     0.047 A 
ATOM     18 BR   UNL d   1      -8.101  -1.651  -8.922  0.00  0.00    -0.048 Br
ATOM     19  C   UNL d   1      -6.075  -3.466  -7.936  0.00  0.00     0.048 A 
ATOM     20 BR   UNL d   1      -7.464  -4.797  -8.017  0.00  0.00    -0.048 Br
ATOM     21  C   UNL d   1      -4.798  -3.817  -7.495  0.00  0.00     0.047 A 
ATOM     22 BR   UNL d   1      -4.407  -5.625  -6.968  0.00  0.00    -0.048 Br
ATOM     23  C   UNL d   1      -3.792  -2.852  -7.437  0.00  0.00     0.037 A 
ATOM     24 BR   UNL d   1      -2.017  -3.269  -6.839  0.00  0.00    -0.049 Br
ENDBRANCH   1  14
TORSDOF 3
ENDMDL
MODEL 4
REMARK VINA RESULT:      -0.0     20.522     23.444
REMARK  3 active torsions:
REMARK  status: ('A' for Active; 'I' for Inactive)
REMARK    1  A    between atoms: C_11  and  C_12 
REMARK    2  A    between atoms: C_11  and  C_13 
REMARK    3  A    between atoms: C_12  and  C_14 
ROOT
ATOM      1  C   UNL d   1      -2.393  -2.505  -6.731  0.00  0.00     0.045 C 
ENDROOT
BRANCH   1   2
ATOM      2  C   UNL d   1      -1.372  -2.603  -7.877  0.00  0.00     0.045 C 
BRANCH   2   3
ATOM      3  C   UNL d   1      -1.772  -1.819  -9.103  0.00  0.00    -0.020 A 
ATOM      4  C   UNL d   1      -2.280  -2.486 -10.213  0.00  0.00     0.037 A 
ATOM      5 BR   UNL d   1      -2.450  -4.395 -10.125  0.00  0.00    -0.049 Br
ATOM      6  C   UNL d   1      -2.647  -1.762 -11.346  0.00  0.00     0.047 A 
ATOM      7 BR   UNL d   1      -3.344  -2.693 -12.879  0.00  0.00    -0.048 Br
ATOM      8  C   UNL d   1      -2.504  -0.375 -11.366  0.00  0.00     0.048 A 
ATOM      9 BR   UNL d   1      -3.012   0.624 -12.930  0.00  0.00    -0.048 Br
ATOM     10  C   UNL d   1      -1.994   0.289 -10.249  0.00  0.00     0.047 A 
ATOM     11 BR   UNL d   1      -1.793   2.202 -10.256  0.00  0.00    -0.048 Br
ATOM     12  C   UNL d   1      -1.626  -0.436  -9.115  0.00  0.00     0.037 A 
ATOM     13 BR   UNL d   1      -0.918   0.417  -7.550  0.00  0.00    -0.049 Br
ENDBRANCH   2   3
ENDBRANCH   1   2
BRANCH   1  14
ATOM     14  C   UNL d   1      -3.476  -3.543  -6.796  0.00  0.00    -0.020 A 
ATOM     15  C   UNL d   1      -4.752  -3.194  -7.237  0.00  0.00     0.037 A 
ATOM     16 BR   UNL d   1      -5.060  -1.370  -7.745  0.00  0.00    -0.049 Br
ATOM     17  C   UNL d   1      -5.759  -4.158  -7.295  0.00  0.00     0.047 A 
ATOM     18 BR   UNL d   1      -7.515  -3.657  -7.900  0.00  0.00    -0.048 Br
ATOM     19  C   UNL d   1      -5.489  -5.472  -6.914  0.00  0.00     0.048 A 
ATOM     20 BR   UNL d   1      -6.878  -6.803  -6.995  0.00  0.00    -0.048 Br
ATOM     21  C   UNL d   1      -4.212  -5.822  -6.473  0.00  0.00     0.047 A 
ATOM     22 BR   UNL d   1      -3.822  -7.631  -5.947  0.00  0.00    -0.048 Br
ATOM     23  C   UNL d   1      -3.206  -4.857  -6.415  0.00  0.00     0.037 A 
ATOM     24 BR   UNL d   1      -1.432  -5.275  -5.817  0.00  0.00    -0.049 Br
ENDBRANCH   1  14
TORSDOF 3
ENDMDL
MODEL 5
REMARK VINA RESULT:      -0.0     19.211     21.259
REMARK  3 active torsions:
REMARK  status: ('A' for Active; 'I' for Inactive)
REMARK    1  A    between atoms: C_11  and  C_12 
REMARK    2  A    between atoms: C_11  and  C_13 
REMARK    3  A    between atoms: C_12  and  C_14 
ROOT
ATOM      1  C   UNL d   1      10.103   4.750  13.340  0.00  0.00     0.045 C 
ENDROOT
BRANCH   1   2
ATOM      2  C   UNL d   1       9.735   6.223  13.098  0.00  0.00     0.045 C 
BRANCH   2   3
ATOM      3  C   UNL d   1      10.775   6.977  12.306  0.00  0.00    -0.020 A 
ATOM      4  C   UNL d   1      11.637   7.853  12.958  0.00  0.00     0.037 A 
ATOM      5 BR   UNL d   1      11.456   8.058  14.857  0.00  0.00    -0.049 Br
ATOM      6  C   UNL d   1      12.597   8.551  12.227  0.00  0.00     0.047 A 
ATOM      7 BR   UNL d   1      13.781   9.765  13.136  0.00  0.00    -0.048 Br
ATOM      8  C   UNL d   1      12.691   8.371  10.847  0.00  0.00     0.048 A 
ATOM      9 BR   UNL d   1      14.016   9.335   9.838  0.00  0.00    -0.048 Br
ATOM     10  C   UNL d   1      11.823   7.491  10.199  0.00  0.00     0.047 A 
ATOM     11 BR   UNL d   1      11.941   7.227   8.297  0.00  0.00    -0.048 Br
ATOM     12  C   UNL d   1      10.863   6.793  10.931  0.00  0.00     0.037 A 
ATOM     13 BR   UNL d   1       9.642   5.570  10.099  0.00  0.00    -0.049 Br
ENDBRANCH   2   3
ENDBRANCH   1   2
BRANCH   1  14
ATOM     14  C   UNL d   1      10.919   4.526  14.580  0.00  0.00    -0.020 A 
ATOM     15  C   UNL d   1      12.289   4.286  14.479  0.00  0.00     0.037 A 
ATOM     16 BR   UNL d   1      13.071   4.254  12.728  0.00  0.00    -0.049 Br
ATOM     17  C   UNL d   1      13.047   4.076  15.631  0.00  0.00     0.047 A 
ATOM     18 BR   UNL d   1      14.935   3.740  15.474  0.00  0.00    -0.048 Br
ATOM     19  C   UNL d   1      12.435   4.106  16.884  0.00  0.00     0.048 A 
ATOM     20 BR   UNL d   1      13.482   3.817  18.475  0.00  0.00    -0.048 Br
ATOM     21  C   UNL d   1      11.064   4.346  16.986  0.00  0.00     0.047 A 
ATOM     22 BR   UNL d   1      10.205   4.395  18.706  0.00  0.00    -0.048 Br
ATOM     23  C   UNL d   1      10.307   4.556  15.833  0.00  0.00     0.037 A 
ATOM     24 BR   UNL d   1       8.419   4.890  15.904  0.00  0.00    -0.049 Br
ENDBRANCH   1  14
TORSDOF 3
ENDMDL
MODEL 6
REMARK VINA RESULT:      -0.0     23.073     25.936
REMARK  3 active torsions:
REMARK  status: ('A' for Active; 'I' for Inactive)
REMARK    1  A    between atoms: C_11  and  C_12 
REMARK    2  A    between atoms: C_11  and  C_13 
REMARK    3  A    between atoms: C_12  and  C_14 
ROOT
ATOM      1  C   UNL d   1      -8.892 -12.205  -8.073  0.00  0.00     0.045 C 
ENDROOT
BRANCH   1   2
ATOM      2  C   UNL d   1      -8.045 -12.074  -6.797  0.00  0.00     0.045 C 
BRANCH   2   3
ATOM      3  C   UNL d   1      -6.857 -13.005  -6.770  0.00  0.00    -0.020 A 
ATOM      4  C   UNL d   1      -6.898 -14.152  -5.984  0.00  0.00     0.037 A 
ATOM      5 BR   UNL d   1      -8.485 -14.497  -4.963  0.00  0.00    -0.049 Br
ATOM      6  C   UNL d   1      -5.801 -15.011  -5.957  0.00  0.00     0.047 A 
ATOM      7 BR   UNL d   1      -5.863 -16.593  -4.864  0.00  0.00    -0.048 Br
ATOM      8  C   UNL d   1      -4.667 -14.719  -6.715  0.00  0.00     0.048 A 
ATOM      9 BR   UNL d   1      -3.151 -15.905  -6.678  0.00  0.00    -0.048 Br
ATOM     10  C   UNL d   1      -4.632 -13.566  -7.501  0.00  0.00     0.047 A 
ATOM     11 BR   UNL d   1      -3.077 -13.149  -8.556  0.00  0.00    -0.048 Br
ATOM     12  C   UNL d   1      -5.730 -12.707  -7.527  0.00  0.00     0.037 A 
ATOM     13 BR   UNL d   1      -5.743 -11.108  -8.586  0.00  0.00    -0.049 Br
ENDBRANCH   2   3
ENDBRANCH   1   2
BRANCH   1  14
ATOM     14  C   UNL d   1      -9.967 -13.249  -7.981  0.00  0.00    -0.020 A 
ATOM     15  C   UNL d   1      -9.801 -14.478  -8.619  0.00  0.00     0.037 A 
ATOM     16 BR   UNL d   1      -8.178 -14.772  -9.598  0.00  0.00    -0.049 Br
ATOM     17  C   UNL d   1     -10.800 -15.448  -8.535  0.00  0.00     0.047 A 
ATOM     18 BR   UNL d   1     -10.558 -17.136  -9.426  0.00  0.00    -0.048 Br
ATOM     19  C   UNL d   1     -11.965 -15.189  -7.813  0.00  0.00     0.048 A 
ATOM     20 BR   UNL d   1     -13.344 -16.528  -7.697  0.00  0.00    -0.048 Br
ATOM     21  C   UNL d   1     -12.132 -13.960  -7.175  0.00  0.00     0.047 A 
ATOM     22 BR   UNL d   1     -13.730 -13.587  -6.172  0.00  0.00    -0.048 Br
ATOM     23  C   UNL d   1     -11.132 -12.990  -7.259  0.00  0.00     0.037 A 
ATOM     24 BR   UNL d   1     -11.300 -11.280  -6.405  0.00  0.00    -0.049 Br
ENDBRANCH   1  14
TORSDOF 3
ENDMDL
MODEL 7
REMARK VINA RESULT:      -0.0     23.995     26.037
REMARK  3 active torsions:
REMARK  status: ('A' for Active; 'I' for Inactive)
REMARK    1  A    between atoms: C_11  and  C_12 
REMARK    2  A    between atoms: C_11  and  C_13 
REMARK    3  A    between atoms: C_12  and  C_14 
ROOT
ATOM      1  C   UNL d   1       4.231   9.828   8.811  0.00  0.00     0.045 C 
ENDROOT
BRANCH   1   2
ATOM      2  C   UNL d   1       3.308  11.015   8.492  0.00  0.00     0.045 C 
BRANCH   2   3
ATOM      3  C   UNL d   1       4.035  12.194   7.893  0.00  0.00    -0.020 A 
ATOM      4  C   UNL d   1       4.310  13.308   8.679  0.00  0.00     0.037 A 
ATOM      5 BR   UNL d   1       3.744  13.286  10.512  0.00  0.00    -0.049 Br
ATOM      6  C   UNL d   1       4.980  14.397   8.125  0.00  0.00     0.047 A 
ATOM      7 BR   UNL d   1       5.352  15.936   9.219  0.00  0.00    -0.048 Br
ATOM      8  C   UNL d   1       5.372  14.369   6.787  0.00  0.00     0.048 A 
ATOM      9 BR   UNL d   1       6.297  15.874   6.022  0.00  0.00    -0.048 Br
ATOM     10  C   UNL d   1       5.093  13.249   6.003  0.00  0.00     0.047 A 
ATOM     11 BR   UNL d   1       5.630  13.192   4.156  0.00  0.00    -0.048 Br
ATOM     12  C   UNL d   1       4.423  12.159   6.558  0.00  0.00     0.037 A 
ATOM     13 BR   UNL d   1       4.010  10.592   5.532  0.00  0.00    -0.049 Br
ENDBRANCH   2   3
ENDBRANCH   1   2
BRANCH   1  14
ATOM     14  C   UNL d   1       4.845   9.889  10.180  0.00  0.00    -0.020 A 
ATOM     15  C   UNL d   1       6.179  10.265  10.329  0.00  0.00     0.037 A 
ATOM     16 BR   UNL d   1       7.178  10.690   8.748  0.00  0.00    -0.049 Br
ATOM     17  C   UNL d   1       6.751  10.320  11.601  0.00  0.00     0.047 A 
ATOM     18 BR   UNL d   1       8.595  10.834  11.789  0.00  0.00    -0.048 Br
ATOM     19  C   UNL d   1       5.987  10.001  12.723  0.00  0.00     0.048 A 
ATOM     20 BR   UNL d   1       6.774  10.078  14.479  0.00  0.00    -0.048 Br
ATOM     21  C   UNL d   1       4.651   9.625  12.574  0.00  0.00     0.047 A 
ATOM     22 BR   UNL d   1       3.581   9.185  14.111  0.00  0.00    -0.048 Br
ATOM     23  C   UNL d   1       4.081   9.570  11.302  0.00  0.00     0.037 A 
ATOM     24 BR   UNL d   1       2.251   9.060  11.030  0.00  0.00    -0.049 Br
ENDBRANCH   1  14
TORSDOF 3
ENDMDL
MODEL 8
REMARK VINA RESULT:      -0.0     18.398     20.921
REMARK  3 active torsions:
REMARK  status: ('A' for Active; 'I' for Inactive)
REMARK    1  A    between atoms: C_11  and  C_12 
REMARK    2  A    between atoms: C_11  and  C_13 
REMARK    3  A    between atoms: C_12  and  C_14 
ROOT
ATOM      1  C   UNL d   1       1.738   2.050  12.681  0.00  0.00     0.045 C 
ENDROOT
BRANCH   1   2
ATOM      2  C   UNL d   1       0.703   2.350  11.584  0.00  0.00     0.045 C 
BRANCH   2   3
ATOM      3  C   UNL d   1      -0.699   1.931  11.954  0.00  0.00    -0.020 A 
ATOM      4  C   UNL d   1      -1.241   0.774  11.404  0.00  0.00     0.037 A 
ATOM      5 BR   UNL d   1      -0.162  -0.244  10.187  0.00  0.00    -0.049 Br
ATOM      6  C   UNL d   1      -2.537   0.388  11.743  0.00  0.00     0.047 A 
ATOM      7 BR   UNL d   1      -3.280  -1.211  10.974  0.00  0.00    -0.048 Br
ATOM      8  C   UNL d   1      -3.285   1.160  12.632  0.00  0.00     0.048 A 
ATOM      9 BR   UNL d   1      -5.074   0.627  13.101  0.00  0.00    -0.048 Br
ATOM     10  C   UNL d   1      -2.736   2.320  13.180  0.00  0.00     0.047 A 
ATOM     11 BR   UNL d   1      -3.753   3.395  14.410  0.00  0.00    -0.048 Br
ATOM     12  C   UNL d   1      -1.440   2.706  12.839  0.00  0.00     0.037 A 
ATOM     13 BR   UNL d   1      -0.630   4.289  13.558  0.00  0.00    -0.049 Br
ENDBRANCH   2   3
ENDBRANCH   1   2
BRANCH   1  14
ATOM     14  C   UNL d   1       2.338   0.678  12.586  0.00  0.00    -0.020 A 
ATOM     15  C   UNL d   1       1.925  -0.326  13.461  0.00  0.00     0.037 A 
ATOM     16 BR   UNL d   1       0.586   0.110  14.763  0.00  0.00    -0.049 Br
ATOM     17  C   UNL d   1       2.484  -1.601  13.374  0.00  0.00     0.047 A 
ATOM     18 BR   UNL d   1       1.906  -2.973  14.593  0.00  0.00    -0.048 Br
ATOM     19  C   UNL d   1       3.457  -1.873  12.413  0.00  0.00     0.048 A 
ATOM     20 BR   UNL d   1       4.229  -3.633  12.293  0.00  0.00    -0.048 Br
ATOM     21  C   UNL d   1       3.871  -0.869  11.537  0.00  0.00     0.047 A 
ATOM     22 BR   UNL d   1       5.209  -1.226  10.201  0.00  0.00    -0.048 Br
ATOM     23  C   UNL d   1       3.311   0.406  11.624  0.00  0.00     0.037 A 
ATOM     24 BR   UNL d   1       3.838   1.830  10.451  0.00  0.00    -0.049 Br
ENDBRANCH   1  14
TORSDOF 3
ENDMDL
MODEL 9
REMARK VINA RESULT:      -0.0     25.187     29.052
REMARK  3 active torsions:
REMARK  status: ('A' for Active; 'I' for Inactive)
REMARK    1  A    between atoms: C_11  and  C_12 
REMARK    2  A    between atoms: C_11  and  C_13 
REMARK    3  A    between atoms: C_12  and  C_14 
ROOT
ATOM      1  C   UNL d   1     -14.342  -7.124  10.129  0.00  0.00     0.045 C 
ENDROOT
BRANCH   1   2
ATOM      2  C   UNL d   1     -13.474  -5.858  10.213  0.00  0.00     0.045 C 
BRANCH   2   3
ATOM      3  C   UNL d   1     -12.123  -6.014   9.560  0.00  0.00    -0.020 A 
ATOM      4  C   UNL d   1     -10.992  -6.196  10.348  0.00  0.00     0.037 A 
ATOM      5 BR   UNL d   1     -11.212  -6.241  12.254  0.00  0.00    -0.049 Br
ATOM      6  C   UNL d   1      -9.743  -6.338   9.745  0.00  0.00     0.047 A 
ATOM      7 BR   UNL d   1      -8.184  -6.585  10.844  0.00  0.00    -0.048 Br
ATOM      8  C   UNL d   1      -9.631  -6.298   8.355  0.00  0.00     0.048 A 
ATOM      9 BR   UNL d   1      -7.907  -6.494   7.522  0.00  0.00    -0.048 Br
ATOM     10  C   UNL d   1     -10.770  -6.115   7.569  0.00  0.00     0.047 A 
ATOM     11 BR   UNL d   1     -10.633  -6.060   5.651  0.00  0.00    -0.048 Br
ATOM     12  C   UNL d   1     -12.018  -5.972   8.174  0.00  0.00     0.037 A 
ATOM     13 BR   UNL d   1     -13.619  -5.717   7.149  0.00  0.00    -0.049 Br
ENDBRANCH   2   3
ENDBRANCH   1   2
BRANCH   1  14
ATOM     14  C   UNL d   1     -14.126  -8.082  11.265  0.00  0.00    -0.020 A 
ATOM     15  C   UNL d   1     -13.376  -9.241  11.067  0.00  0.00     0.037 A 
ATOM     16 BR   UNL d   1     -12.647  -9.554   9.321  0.00  0.00    -0.049 Br
ATOM     17  C   UNL d   1     -13.178 -10.132  12.122  0.00  0.00     0.047 A 
ATOM     18 BR   UNL d   1     -12.145 -11.729  11.830  0.00  0.00    -0.048 Br
ATOM     19  C   UNL d   1     -13.728  -9.864  13.374  0.00  0.00     0.048 A 
ATOM     20 BR   UNL d   1     -13.454 -11.094  14.830  0.00  0.00    -0.048 Br
ATOM     21  C   UNL d   1     -14.479  -8.705  13.573  0.00  0.00     0.047 A 
ATOM     22 BR   UNL d   1     -15.243  -8.317  15.295  0.00  0.00    -0.048 Br
ATOM     23  C   UNL d   1     -14.677  -7.814  12.518  0.00  0.00     0.037 A 
ATOM     24 BR   UNL d   1     -15.700  -6.204  12.725  0.00  0.00    -0.049 Br
ENDBRANCH   1  14
TORSDOF 3
ENDMDL
