MODEL 1
REMARK VINA RESULT:       0.0      0.000      0.000
REMARK  12 active torsions:
REMARK  status: ('A' for Active; 'I' for Inactive)
REMARK    1  A    between atoms: P_4  and  O_5 
REMARK    2  A    between atoms: P_4  and  O_6 
REMARK    3  A    between atoms: P_4  and  O_7 
REMARK    4  A    between atoms: O_5  and  C_9 
REMARK    5  A    between atoms: O_6  and  C_10 
REMARK    6  A    between atoms: O_7  and  C_11 
REMARK    7  A    between atoms: C_9  and  C_12 
REMARK    8  A    between atoms: C_10  and  C_13 
REMARK    9  A    between atoms: C_11  and  C_14 
REMARK   10  A    between atoms: C_12  and  C_15 
REMARK   11  A    between atoms: C_13  and  C_16 
REMARK   12  A    between atoms: C_14  and  C_17 
ROOT
ATOM      1  P   UNL d   1       6.055  -9.229  11.796  0.00  0.00     0.477 P 
ATOM      2  O   UNL d   1       6.281 -10.294  10.762  0.00  0.00    -0.227 OA
ENDROOT
BRANCH   1   3
ATOM      3  O   UNL d   1       5.311  -7.901  11.237  0.00  0.00    -0.292 OA
BRANCH   3   4
ATOM      4  C   UNL d   1       4.242  -7.324  11.968  0.00  0.00     0.181 C 
BRANCH   4   5
ATOM      5  C   UNL d   1       4.765  -6.107  12.720  0.00  0.00     0.042 C 
BRANCH   5   6
ATOM      6  C   UNL d   1       5.338  -5.028  11.810  0.00  0.00     0.116 C 
ATOM      7 CL   UNL d   1       6.203  -3.773  12.725  0.00  0.00    -0.130 Cl
ENDBRANCH   5   6
ENDBRANCH   4   5
ENDBRANCH   3   4
ENDBRANCH   1   3
BRANCH   1   8
ATOM      8  O   UNL d   1       7.404  -8.671  12.499  0.00  0.00    -0.292 OA
BRANCH   8   9
ATOM      9  C   UNL d   1       8.114  -7.624  11.861  0.00  0.00     0.181 C 
BRANCH   9  10
ATOM     10  C   UNL d   1       8.547  -6.613  12.916  0.00  0.00     0.042 C 
BRANCH  10  11
ATOM     11  C   UNL d   1       8.342  -7.097  14.346  0.00  0.00     0.116 C 
ATOM     12 CL   UNL d   1       7.357  -5.964  15.298  0.00  0.00    -0.130 Cl
ENDBRANCH  10  11
ENDBRANCH   9  10
ENDBRANCH   8   9
ENDBRANCH   1   8
BRANCH   1  13
ATOM     13  O   UNL d   1       5.154  -9.696  13.060  0.00  0.00    -0.292 OA
BRANCH  13  14
ATOM     14  C   UNL d   1       5.787  -9.853  14.318  0.00  0.00     0.181 C 
BRANCH  14  15
ATOM     15  C   UNL d   1       5.143  -8.895  15.312  0.00  0.00     0.042 C 
BRANCH  15  16
ATOM     16  C   UNL d   1       3.621  -8.944  15.309  0.00  0.00     0.116 C 
ATOM     17 CL   UNL d   1       2.902  -7.348  15.623  0.00  0.00    -0.130 Cl
ENDBRANCH  15  16
ENDBRANCH  14  15
ENDBRANCH  13  14
ENDBRANCH   1  13
TORSDOF 12
ENDMDL
MODEL 2
REMARK VINA RESULT:       0.0      4.739      6.411
REMARK  12 active torsions:
REMARK  status: ('A' for Active; 'I' for Inactive)
REMARK    1  A    between atoms: P_4  and  O_5 
REMARK    2  A    between atoms: P_4  and  O_6 
REMARK    3  A    between atoms: P_4  and  O_7 
REMARK    4  A    between atoms: O_5  and  C_9 
REMARK    5  A    between atoms: O_6  and  C_10 
REMARK    6  A    between atoms: O_7  and  C_11 
REMARK    7  A    between atoms: C_9  and  C_12 
REMARK    8  A    between atoms: C_10  and  C_13 
REMARK    9  A    between atoms: C_11  and  C_14 
REMARK   10  A    between atoms: C_12  and  C_15 
REMARK   11  A    between atoms: C_13  and  C_16 
REMARK   12  A    between atoms: C_14  and  C_17 
ROOT
ATOM      1  P   UNL d   1       7.276  -2.403  13.751  0.00  0.00     0.477 P 
ATOM      2  O   UNL d   1       7.042  -1.305  12.754  0.00  0.00    -0.227 OA
ENDROOT
BRANCH   1   3
ATOM      3  O   UNL d   1       6.748  -3.861  13.277  0.00  0.00    -0.292 OA
BRANCH   3   4
ATOM      4  C   UNL d   1       6.009  -4.676  14.172  0.00  0.00     0.181 C 
BRANCH   4   5
ATOM      5  C   UNL d   1       6.937  -5.744  14.738  0.00  0.00     0.042 C 
BRANCH   5   6
ATOM      6  C   UNL d   1       7.512  -6.675  13.679  0.00  0.00     0.116 C 
ATOM      7 CL   UNL d   1       8.841  -7.671  14.315  0.00  0.00    -0.130 Cl
ENDBRANCH   5   6
ENDBRANCH   4   5
ENDBRANCH   3   4
ENDBRANCH   1   3
BRANCH   1   8
ATOM      8  O   UNL d   1       6.573  -2.168  15.192  0.00  0.00    -0.292 OA
BRANCH   8   9
ATOM      9  C   UNL d   1       7.399  -1.874  16.305  0.00  0.00     0.181 C 
BRANCH   9  10
ATOM     10  C   UNL d   1       7.196  -2.952  17.363  0.00  0.00     0.042 C 
BRANCH  10  11
ATOM     11  C   UNL d   1       5.732  -3.255  17.654  0.00  0.00     0.116 C 
ATOM     12 CL   UNL d   1       5.462  -4.981  17.986  0.00  0.00    -0.130 Cl
ENDBRANCH  10  11
ENDBRANCH   9  10
ENDBRANCH   8   9
ENDBRANCH   1   8
BRANCH   1  13
ATOM     13  O   UNL d   1       8.830  -2.643  14.140  0.00  0.00    -0.292 OA
BRANCH  13  14
ATOM     14  C   UNL d   1       9.605  -3.503  13.322  0.00  0.00     0.181 C 
BRANCH  14  15
ATOM     15  C   UNL d   1      10.461  -4.389  14.219  0.00  0.00     0.042 C 
BRANCH  15  16
ATOM     16  C   UNL d   1      10.444  -3.972  15.683  0.00  0.00     0.116 C 
ATOM     17 CL   UNL d   1       9.940  -5.304  16.749  0.00  0.00    -0.130 Cl
ENDBRANCH  15  16
ENDBRANCH  14  15
ENDBRANCH  13  14
ENDBRANCH   1  13
TORSDOF 12
ENDMDL
MODEL 3
REMARK VINA RESULT:       0.0     19.681     21.081
REMARK  12 active torsions:
REMARK  status: ('A' for Active; 'I' for Inactive)
REMARK    1  A    between atoms: P_4  and  O_5 
REMARK    2  A    between atoms: P_4  and  O_6 
REMARK    3  A    between atoms: P_4  and  O_7 
REMARK    4  A    between atoms: O_5  and  C_9 
REMARK    5  A    between atoms: O_6  and  C_10 
REMARK    6  A    between atoms: O_7  and  C_11 
REMARK    7  A    between atoms: C_9  and  C_12 
REMARK    8  A    between atoms: C_10  and  C_13 
REMARK    9  A    between atoms: C_11  and  C_14 
REMARK   10  A    between atoms: C_12  and  C_15 
REMARK   11  A    between atoms: C_13  and  C_16 
REMARK   12  A    between atoms: C_14  and  C_17 
ROOT
ATOM      1  P   UNL d   1      -5.776  -8.320  -5.987  0.00  0.00     0.477 P 
ATOM      2  O   UNL d   1      -5.569  -8.194  -7.470  0.00  0.00    -0.227 OA
ENDROOT
BRANCH   1   3
ATOM      3  O   UNL d   1      -6.725  -7.173  -5.346  0.00  0.00    -0.292 OA
BRANCH   3   4
ATOM      4  C   UNL d   1      -8.131  -7.358  -5.296  0.00  0.00     0.181 C 
BRANCH   4   5
ATOM      5  C   UNL d   1      -8.619  -7.013  -3.895  0.00  0.00     0.042 C 
BRANCH   5   6
ATOM      6  C   UNL d   1      -7.581  -6.289  -3.049  0.00  0.00     0.116 C 
ATOM      7 CL   UNL d   1      -7.354  -7.062  -1.464  0.00  0.00    -0.130 Cl
ENDBRANCH   5   6
ENDBRANCH   4   5
ENDBRANCH   3   4
ENDBRANCH   1   3
BRANCH   1   8
ATOM      8  O   UNL d   1      -4.417  -8.259  -5.108  0.00  0.00    -0.292 OA
BRANCH   8   9
ATOM      9  C   UNL d   1      -4.142  -7.081  -4.371  0.00  0.00     0.181 C 
BRANCH   9  10
ATOM     10  C   UNL d   1      -4.001  -7.446  -2.898  0.00  0.00     0.042 C 
BRANCH  10  11
ATOM     11  C   UNL d   1      -3.069  -8.626  -2.649  0.00  0.00     0.116 C 
ATOM     12 CL   UNL d   1      -3.610  -9.623  -1.279  0.00  0.00    -0.130 Cl
ENDBRANCH  10  11
ENDBRANCH   9  10
ENDBRANCH   8   9
ENDBRANCH   1   8
BRANCH   1  13
ATOM     13  O   UNL d   1      -6.452  -9.715  -5.516  0.00  0.00    -0.292 OA
BRANCH  13  14
ATOM     14  C   UNL d   1      -5.852 -10.428  -4.448  0.00  0.00     0.181 C 
BRANCH  14  15
ATOM     15  C   UNL d   1      -6.691 -10.225  -3.193  0.00  0.00     0.042 C 
BRANCH  15  16
ATOM     16  C   UNL d   1      -8.131 -10.700  -3.337  0.00  0.00     0.116 C 
ATOM     17 CL   UNL d   1      -9.168 -10.089  -2.029  0.00  0.00    -0.130 Cl
ENDBRANCH  15  16
ENDBRANCH  14  15
ENDBRANCH  13  14
ENDBRANCH   1  13
TORSDOF 12
ENDMDL
MODEL 4
REMARK VINA RESULT:       0.0     18.366     19.860
REMARK  12 active torsions:
REMARK  status: ('A' for Active; 'I' for Inactive)
REMARK    1  A    between atoms: P_4  and  O_5 
REMARK    2  A    between atoms: P_4  and  O_6 
REMARK    3  A    between atoms: P_4  and  O_7 
REMARK    4  A    between atoms: O_5  and  C_9 
REMARK    5  A    between atoms: O_6  and  C_10 
REMARK    6  A    between atoms: O_7  and  C_11 
REMARK    7  A    between atoms: C_9  and  C_12 
REMARK    8  A    between atoms: C_10  and  C_13 
REMARK    9  A    between atoms: C_11  and  C_14 
REMARK   10  A    between atoms: C_12  and  C_15 
REMARK   11  A    between atoms: C_13  and  C_16 
REMARK   12  A    between atoms: C_14  and  C_17 
ROOT
ATOM      1  P   UNL d   1      -1.093  -7.778  -6.142  0.00  0.00     0.477 P 
ATOM      2  O   UNL d   1      -1.188  -8.832  -7.208  0.00  0.00    -0.227 OA
ENDROOT
BRANCH   1   3
ATOM      3  O   UNL d   1       0.422  -7.333  -5.775  0.00  0.00    -0.292 OA
BRANCH   3   4
ATOM      4  C   UNL d   1       0.994  -7.710  -4.533  0.00  0.00     0.181 C 
BRANCH   4   5
ATOM      5  C   UNL d   1       2.048  -6.679  -4.148  0.00  0.00     0.042 C 
BRANCH   5   6
ATOM      6  C   UNL d   1       2.684  -5.982  -5.343  0.00  0.00     0.116 C 
ATOM      7 CL   UNL d   1       2.281  -4.251  -5.397  0.00  0.00    -0.130 Cl
ENDBRANCH   5   6
ENDBRANCH   4   5
ENDBRANCH   3   4
ENDBRANCH   1   3
BRANCH   1   8
ATOM      8  O   UNL d   1      -1.747  -8.194  -4.720  0.00  0.00    -0.292 OA
BRANCH   8   9
ATOM      9  C   UNL d   1      -3.123  -8.531  -4.683  0.00  0.00     0.181 C 
BRANCH   9  10
ATOM     10  C   UNL d   1      -3.710  -8.047  -3.362  0.00  0.00     0.042 C 
BRANCH  10  11
ATOM     11  C   UNL d   1      -4.581  -6.805  -3.499  0.00  0.00     0.116 C 
ATOM     12 CL   UNL d   1      -5.031  -6.491  -5.191  0.00  0.00    -0.130 Cl
ENDBRANCH  10  11
ENDBRANCH   9  10
ENDBRANCH   8   9
ENDBRANCH   1   8
BRANCH   1  13
ATOM     13  O   UNL d   1      -1.848  -6.389  -6.496  0.00  0.00    -0.292 OA
BRANCH  13  14
ATOM     14  C   UNL d   1      -1.218  -5.169  -6.144  0.00  0.00     0.181 C 
BRANCH  14  15
ATOM     15  C   UNL d   1      -1.879  -4.623  -4.885  0.00  0.00     0.042 C 
BRANCH  15  16
ATOM     16  C   UNL d   1      -0.914  -4.431  -3.722  0.00  0.00     0.116 C 
ATOM     17 CL   UNL d   1      -1.164  -5.641  -2.444  0.00  0.00    -0.130 Cl
ENDBRANCH  15  16
ENDBRANCH  14  15
ENDBRANCH  13  14
ENDBRANCH   1  13
TORSDOF 12
ENDMDL
MODEL 5
REMARK VINA RESULT:       0.0     17.017     18.358
REMARK  12 active torsions:
REMARK  status: ('A' for Active; 'I' for Inactive)
REMARK    1  A    between atoms: P_4  and  O_5 
REMARK    2  A    between atoms: P_4  and  O_6 
REMARK    3  A    between atoms: P_4  and  O_7 
REMARK    4  A    between atoms: O_5  and  C_9 
REMARK    5  A    between atoms: O_6  and  C_10 
REMARK    6  A    between atoms: O_7  and  C_11 
REMARK    7  A    between atoms: C_9  and  C_12 
REMARK    8  A    between atoms: C_10  and  C_13 
REMARK    9  A    between atoms: C_11  and  C_14 
REMARK   10  A    between atoms: C_12  and  C_15 
REMARK   11  A    between atoms: C_13  and  C_16 
REMARK   12  A    between atoms: C_14  and  C_17 
ROOT
ATOM      1  P   UNL d   1      -3.717   4.234   6.651  0.00  0.00     0.477 P 
ATOM      2  O   UNL d   1      -2.270   4.532   6.921  0.00  0.00    -0.227 OA
ENDROOT
BRANCH   1   3
ATOM      3  O   UNL d   1      -4.329   5.002   5.362  0.00  0.00    -0.292 OA
BRANCH   3   4
ATOM      4  C   UNL d   1      -5.290   6.030   5.536  0.00  0.00     0.181 C 
BRANCH   4   5
ATOM      5  C   UNL d   1      -6.562   5.640   4.793  0.00  0.00     0.042 C 
BRANCH   5   6
ATOM      6  C   UNL d   1      -6.320   5.222   3.349  0.00  0.00     0.116 C 
ATOM      7 CL   UNL d   1      -7.831   4.781   2.520  0.00  0.00    -0.130 Cl
ENDBRANCH   5   6
ENDBRANCH   4   5
ENDBRANCH   3   4
ENDBRANCH   1   3
BRANCH   1   8
ATOM      8  O   UNL d   1      -4.722   4.614   7.863  0.00  0.00    -0.292 OA
BRANCH   8   9
ATOM      9  C   UNL d   1      -5.012   3.624   8.835  0.00  0.00     0.181 C 
BRANCH   9  10
ATOM     10  C   UNL d   1      -6.525   3.502   8.973  0.00  0.00     0.042 C 
BRANCH  10  11
ATOM     11  C   UNL d   1      -7.286   4.708   8.438  0.00  0.00     0.116 C 
ATOM     12 CL   UNL d   1      -8.664   4.229   7.421  0.00  0.00    -0.130 Cl
ENDBRANCH  10  11
ENDBRANCH   9  10
ENDBRANCH   8   9
ENDBRANCH   1   8
BRANCH   1  13
ATOM     13  O   UNL d   1      -4.045   2.670   6.384  0.00  0.00    -0.292 OA
BRANCH  13  14
ATOM     14  C   UNL d   1      -4.739   2.318   5.199  0.00  0.00     0.181 C 
BRANCH  14  15
ATOM     15  C   UNL d   1      -6.186   2.002   5.554  0.00  0.00     0.042 C 
BRANCH  15  16
ATOM     16  C   UNL d   1      -7.049   1.656   4.348  0.00  0.00     0.116 C 
ATOM     17 CL   UNL d   1      -8.759   2.064   4.615  0.00  0.00    -0.130 Cl
ENDBRANCH  15  16
ENDBRANCH  14  15
ENDBRANCH  13  14
ENDBRANCH   1  13
TORSDOF 12
ENDMDL
MODEL 6
REMARK VINA RESULT:       0.0     30.398     32.399
REMARK  12 active torsions:
REMARK  status: ('A' for Active; 'I' for Inactive)
REMARK    1  A    between atoms: P_4  and  O_5 
REMARK    2  A    between atoms: P_4  and  O_6 
REMARK    3  A    between atoms: P_4  and  O_7 
REMARK    4  A    between atoms: O_5  and  C_9 
REMARK    5  A    between atoms: O_6  and  C_10 
REMARK    6  A    between atoms: O_7  and  C_11 
REMARK    7  A    between atoms: C_9  and  C_12 
REMARK    8  A    between atoms: C_10  and  C_13 
REMARK    9  A    between atoms: C_11  and  C_14 
REMARK   10  A    between atoms: C_12  and  C_15 
REMARK   11  A    between atoms: C_13  and  C_16 
REMARK   12  A    between atoms: C_14  and  C_17 
ROOT
ATOM      1  P   UNL d   1      -4.978   4.742 -12.734  0.00  0.00     0.477 P 
ATOM      2  O   UNL d   1      -5.169   3.265 -12.536  0.00  0.00    -0.227 OA
ENDROOT
BRANCH   1   3
ATOM      3  O   UNL d   1      -4.878   5.593 -11.358  0.00  0.00    -0.292 OA
BRANCH   3   4
ATOM      4  C   UNL d   1      -3.877   6.587 -11.206  0.00  0.00     0.181 C 
BRANCH   4   5
ATOM      5  C   UNL d   1      -4.511   7.955 -11.423  0.00  0.00     0.042 C 
BRANCH   5   6
ATOM      6  C   UNL d   1      -5.621   8.276 -10.431  0.00  0.00     0.116 C 
ATOM      7 CL   UNL d   1      -6.520   9.741 -10.887  0.00  0.00    -0.130 Cl
ENDBRANCH   5   6
ENDBRANCH   4   5
ENDBRANCH   3   4
ENDBRANCH   1   3
BRANCH   1   8
ATOM      8  O   UNL d   1      -6.156   5.470 -13.575  0.00  0.00    -0.292 OA
BRANCH   8   9
ATOM      9  C   UNL d   1      -7.317   5.894 -12.882  0.00  0.00     0.181 C 
BRANCH   9  10
ATOM     10  C   UNL d   1      -7.704   7.281 -13.380  0.00  0.00     0.042 C 
BRANCH  10  11
ATOM     11  C   UNL d   1      -6.934   7.723 -14.618  0.00  0.00     0.116 C 
ATOM     12 CL   UNL d   1      -6.182   9.320 -14.399  0.00  0.00    -0.130 Cl
ENDBRANCH  10  11
ENDBRANCH   9  10
ENDBRANCH   8   9
ENDBRANCH   1   8
BRANCH   1  13
ATOM     13  O   UNL d   1      -3.642   5.146 -13.557  0.00  0.00    -0.292 OA
BRANCH  13  14
ATOM     14  C   UNL d   1      -3.788   5.673 -14.864  0.00  0.00     0.181 C 
BRANCH  14  15
ATOM     15  C   UNL d   1      -3.219   7.086 -14.888  0.00  0.00     0.042 C 
BRANCH  15  16
ATOM     16  C   UNL d   1      -3.377   7.786 -16.231  0.00  0.00     0.116 C 
ATOM     17 CL   UNL d   1      -3.038   9.528 -16.119  0.00  0.00    -0.130 Cl
ENDBRANCH  15  16
ENDBRANCH  14  15
ENDBRANCH  13  14
ENDBRANCH   1  13
TORSDOF 12
ENDMDL
MODEL 7
REMARK VINA RESULT:       0.0     18.970     20.292
REMARK  12 active torsions:
REMARK  status: ('A' for Active; 'I' for Inactive)
REMARK    1  A    between atoms: P_4  and  O_5 
REMARK    2  A    between atoms: P_4  and  O_6 
REMARK    3  A    between atoms: P_4  and  O_7 
REMARK    4  A    between atoms: O_5  and  C_9 
REMARK    5  A    between atoms: O_6  and  C_10 
REMARK    6  A    between atoms: O_7  and  C_11 
REMARK    7  A    between atoms: C_9  and  C_12 
REMARK    8  A    between atoms: C_10  and  C_13 
REMARK    9  A    between atoms: C_11  and  C_14 
REMARK   10  A    between atoms: C_12  and  C_15 
REMARK   11  A    between atoms: C_13  and  C_16 
REMARK   12  A    between atoms: C_14  and  C_17 
ROOT
ATOM      1  P   UNL d   1      12.495   1.011  -2.222  0.00  0.00     0.477 P 
ATOM      2  O   UNL d   1      11.106   1.301  -1.728  0.00  0.00    -0.227 OA
ENDROOT
BRANCH   1   3
ATOM      3  O   UNL d   1      12.716   1.300  -3.801  0.00  0.00    -0.292 OA
BRANCH   3   4
ATOM      4  C   UNL d   1      13.523   2.389  -4.219  0.00  0.00     0.181 C 
BRANCH   4   5
ATOM      5  C   UNL d   1      12.614   3.517  -4.690  0.00  0.00     0.042 C 
BRANCH   5   6
ATOM      6  C   UNL d   1      12.567   4.701  -3.734  0.00  0.00     0.116 C 
ATOM      7 CL   UNL d   1      11.137   4.648  -2.678  0.00  0.00    -0.130 Cl
ENDBRANCH   5   6
ENDBRANCH   4   5
ENDBRANCH   3   4
ENDBRANCH   1   3
BRANCH   1   8
ATOM      8  O   UNL d   1      12.978  -0.522  -2.019  0.00  0.00    -0.292 OA
BRANCH   8   9
ATOM      9  C   UNL d   1      14.362  -0.778  -1.861  0.00  0.00     0.181 C 
BRANCH   9  10
ATOM     10  C   UNL d   1      14.878  -1.472  -3.117  0.00  0.00     0.042 C 
BRANCH  10  11
ATOM     11  C   UNL d   1      15.810  -0.606  -3.954  0.00  0.00     0.116 C 
ATOM     12 CL   UNL d   1      16.530   0.712  -3.001  0.00  0.00    -0.130 Cl
ENDBRANCH  10  11
ENDBRANCH   9  10
ENDBRANCH   8   9
ENDBRANCH   1   8
BRANCH   1  13
ATOM     13  O   UNL d   1      13.663   1.860  -1.487  0.00  0.00    -0.292 OA
BRANCH  13  14
ATOM     14  C   UNL d   1      13.299   2.743  -0.440  0.00  0.00     0.181 C 
BRANCH  14  15
ATOM     15  C   UNL d   1      14.221   3.955  -0.480  0.00  0.00     0.042 C 
BRANCH  15  16
ATOM     16  C   UNL d   1      15.628   3.636  -0.969  0.00  0.00     0.116 C 
ATOM     17 CL   UNL d   1      16.005   4.462  -2.497  0.00  0.00    -0.130 Cl
ENDBRANCH  15  16
ENDBRANCH  14  15
ENDBRANCH  13  14
ENDBRANCH   1  13
TORSDOF 12
ENDMDL
MODEL 8
REMARK VINA RESULT:       0.0     31.037     32.564
REMARK  12 active torsions:
REMARK  status: ('A' for Active; 'I' for Inactive)
REMARK    1  A    between atoms: P_4  and  O_5 
REMARK    2  A    between atoms: P_4  and  O_6 
REMARK    3  A    between atoms: P_4  and  O_7 
REMARK    4  A    between atoms: O_5  and  C_9 
REMARK    5  A    between atoms: O_6  and  C_10 
REMARK    6  A    between atoms: O_7  and  C_11 
REMARK    7  A    between atoms: C_9  and  C_12 
REMARK    8  A    between atoms: C_10  and  C_13 
REMARK    9  A    between atoms: C_11  and  C_14 
REMARK   10  A    between atoms: C_12  and  C_15 
REMARK   11  A    between atoms: C_13  and  C_16 
REMARK   12  A    between atoms: C_14  and  C_17 
ROOT
ATOM      1  P   UNL d   1     -12.857 -13.242 -11.449  0.00  0.00     0.477 P 
ATOM      2  O   UNL d   1     -13.365 -13.779 -10.141  0.00  0.00    -0.227 OA
ENDROOT
BRANCH   1   3
ATOM      3  O   UNL d   1     -13.915 -13.351 -12.672  0.00  0.00    -0.292 OA
BRANCH   3   4
ATOM      4  C   UNL d   1     -13.699 -14.282 -13.720  0.00  0.00     0.181 C 
BRANCH   4   5
ATOM      5  C   UNL d   1     -13.551 -13.517 -15.030  0.00  0.00     0.042 C 
BRANCH   5   6
ATOM      6  C   UNL d   1     -13.212 -14.405 -16.219  0.00  0.00     0.116 C 
ATOM      7 CL   UNL d   1     -12.727 -13.457 -17.643  0.00  0.00    -0.130 Cl
ENDBRANCH   5   6
ENDBRANCH   4   5
ENDBRANCH   3   4
ENDBRANCH   1   3
BRANCH   1   8
ATOM      8  O   UNL d   1     -11.521 -13.971 -12.004  0.00  0.00    -0.292 OA
BRANCH   8   9
ATOM      9  C   UNL d   1     -10.260 -13.465 -11.602  0.00  0.00     0.181 C 
BRANCH   9  10
ATOM     10  C   UNL d   1      -9.348 -13.399 -12.821  0.00  0.00     0.042 C 
BRANCH  10  11
ATOM     11  C   UNL d   1      -9.947 -14.036 -14.068  0.00  0.00     0.116 C 
ATOM     12 CL   UNL d   1      -9.919 -12.930 -15.460  0.00  0.00    -0.130 Cl
ENDBRANCH  10  11
ENDBRANCH   9  10
ENDBRANCH   8   9
ENDBRANCH   1   8
BRANCH   1  13
ATOM     13  O   UNL d   1     -12.433 -11.679 -11.419  0.00  0.00    -0.292 OA
BRANCH  13  14
ATOM     14  C   UNL d   1     -12.924 -10.826 -12.439  0.00  0.00     0.181 C 
BRANCH  14  15
ATOM     15  C   UNL d   1     -11.791 -10.526 -13.412  0.00  0.00     0.042 C 
BRANCH  15  16
ATOM     16  C   UNL d   1     -10.587  -9.859 -12.761  0.00  0.00     0.116 C 
ATOM     17 CL   UNL d   1      -9.168  -9.854 -13.832  0.00  0.00    -0.130 Cl
ENDBRANCH  15  16
ENDBRANCH  14  15
ENDBRANCH  13  14
ENDBRANCH   1  13
TORSDOF 12
ENDMDL
MODEL 9
REMARK VINA RESULT:       0.0     25.234     26.556
REMARK  12 active torsions:
REMARK  status: ('A' for Active; 'I' for Inactive)
REMARK    1  A    between atoms: P_4  and  O_5 
REMARK    2  A    between atoms: P_4  and  O_6 
REMARK    3  A    between atoms: P_4  and  O_7 
REMARK    4  A    between atoms: O_5  and  C_9 
REMARK    5  A    between atoms: O_6  and  C_10 
REMARK    6  A    between atoms: O_7  and  C_11 
REMARK    7  A    between atoms: C_9  and  C_12 
REMARK    8  A    between atoms: C_10  and  C_13 
REMARK    9  A    between atoms: C_11  and  C_14 
REMARK   10  A    between atoms: C_12  and  C_15 
REMARK   11  A    between atoms: C_13  and  C_16 
REMARK   12  A    between atoms: C_14  and  C_17 
ROOT
ATOM      1  P   UNL d   1      -2.181  10.840  -1.072  0.00  0.00     0.477 P 
ATOM      2  O   UNL d   1      -0.837  10.175  -0.994  0.00  0.00    -0.227 OA
ENDROOT
BRANCH   1   3
ATOM      3  O   UNL d   1      -3.417   9.909  -0.588  0.00  0.00    -0.292 OA
BRANCH   3   4
ATOM      4  C   UNL d   1      -4.377   9.455  -1.528  0.00  0.00     0.181 C 
BRANCH   4   5
ATOM      5  C   UNL d   1      -5.723  10.085  -1.194  0.00  0.00     0.042 C 
BRANCH   5   6
ATOM      6  C   UNL d   1      -6.828   9.718  -2.175  0.00  0.00     0.116 C 
ATOM      7 CL   UNL d   1      -8.295  10.691  -1.922  0.00  0.00    -0.130 Cl
ENDBRANCH   5   6
ENDBRANCH   4   5
ENDBRANCH   3   4
ENDBRANCH   1   3
BRANCH   1   8
ATOM      8  O   UNL d   1      -2.605  11.335  -2.555  0.00  0.00    -0.292 OA
BRANCH   8   9
ATOM      9  C   UNL d   1      -2.743  12.726  -2.789  0.00  0.00     0.181 C 
BRANCH   9  10
ATOM     10  C   UNL d   1      -4.215  13.038  -3.030  0.00  0.00     0.042 C 
BRANCH  10  11
ATOM     11  C   UNL d   1      -4.832  12.230  -4.165  0.00  0.00     0.116 C 
ATOM     12 CL   UNL d   1      -6.552  12.617  -4.398  0.00  0.00    -0.130 Cl
ENDBRANCH  10  11
ENDBRANCH   9  10
ENDBRANCH   8   9
ENDBRANCH   1   8
BRANCH   1  13
ATOM     13  O   UNL d   1      -2.320  12.189  -0.186  0.00  0.00    -0.292 OA
BRANCH  13  14
ATOM     14  C   UNL d   1      -3.261  12.207   0.874  0.00  0.00     0.181 C 
BRANCH  14  15
ATOM     15  C   UNL d   1      -4.188  13.401   0.684  0.00  0.00     0.042 C 
BRANCH  15  16
ATOM     16  C   UNL d   1      -5.651  13.090   0.968  0.00  0.00     0.116 C 
ATOM     17 CL   UNL d   1      -6.703  13.534  -0.395  0.00  0.00    -0.130 Cl
ENDBRANCH  15  16
ENDBRANCH  14  15
ENDBRANCH  13  14
ENDBRANCH   1  13
TORSDOF 12
ENDMDL
