MODEL 1
REMARK VINA RESULT:      -0.0      0.000      0.000
REMARK  8 active torsions:
REMARK  status: ('A' for Active; 'I' for Inactive)
REMARK    1  A    between atoms: O_4  and  C_14 
REMARK    2  A    between atoms: O_4  and  C_18 
REMARK    3  A    between atoms: O_5  and  C_17 
REMARK    4  A    between atoms: O_7  and  C_23 
REMARK    5  A    between atoms: N_8  and  CA_10 
REMARK    6  A    between atoms: C_9  and  CA_10 
REMARK    7  A    between atoms: C_9  and  C_11 
REMARK    8  A    between atoms: CA_10  and  C_17 
ROOT
ATOM      1  I   UNL d   1      -0.563  10.427  13.596  0.00  0.00    -0.042 I 
ATOM      2  I   UNL d   1       3.799   8.591  17.449  0.00  0.00    -0.042 I 
ATOM      3  C   UNL d   1       3.656   9.562  13.239  0.00  0.00    -0.053 A 
ATOM      4  C   UNL d   1       4.069   9.187  14.508  0.00  0.00     0.028 A 
ATOM      5  C   UNL d   1       2.341   9.914  12.982  0.00  0.00     0.028 A 
ATOM      6  C   UNL d   1       1.811   9.513  15.305  0.00  0.00     0.109 A 
ATOM      7  C   UNL d   1       1.413   9.889  14.022  0.00  0.00     0.042 A 
ATOM      8  C   UNL d   1       3.139   9.162  15.547  0.00  0.00     0.042 A 
ENDROOT
BRANCH   6   9
ATOM      9  O   UNL d   1       0.902   9.490  16.324  0.00  0.00    -0.308 OA
BRANCH   9  10
ATOM     10  C   UNL d   1       0.353   8.266  16.662  0.00  0.00     0.077 A 
ATOM     11  C   UNL d   1       0.351   7.244  15.728  0.00  0.00     0.058 A 
ATOM     12  C   UNL d   1      -0.202   6.011  16.070  0.00  0.00     0.042 A 
ATOM     13  I   UNL d   1      -0.195   4.484  14.644  0.00  0.00    -0.042 I 
ATOM     14  C   UNL d   1      -0.746   5.818  17.341  0.00  0.00     0.082 A 
ATOM     15  C   UNL d   1      -0.734   6.859  18.270  0.00  0.00     0.040 A 
ATOM     16  C   UNL d   1      -0.181   8.093  17.927  0.00  0.00     0.040 A 
BRANCH  14  17
ATOM     17  O   UNL d   1      -1.296   4.628  17.715  0.00  0.00    -0.359 OA
ATOM     18  H   UNL d   1      -1.610   4.694  18.633  0.00  0.00     0.217 HD
ENDBRANCH  14  17
ENDBRANCH   9  10
ENDBRANCH   6   9
BRANCH   3  19
ATOM     19  C   UNL d   1       4.663   9.589  12.113  0.00  0.00     0.085 C 
BRANCH  19  20
ATOM     20  CA  UNL d   1       5.329   8.225  11.874  0.00  0.00     0.318 C 
BRANCH  20  21
ATOM     21  N   UNL d   1       6.341   8.346  10.827  0.00  0.00     0.093 N 
ATOM     22  H1  UNL d   1       6.599   9.325  10.712  0.00  0.00     0.314 HD
ATOM     23  H2  UNL d   1       5.948   8.056   9.931  0.00  0.00     0.314 HD
ENDBRANCH  20  21
BRANCH  20  24
ATOM     24  C   UNL d   1       4.335   7.180  11.399  0.00  0.00     0.174 C 
ATOM     25  OXT UNL d   1       3.718   7.229  10.343  0.00  0.00    -0.648 OA
BRANCH  24  26
ATOM     26  O   UNL d   1       4.223   6.141  12.269  0.00  0.00    -0.775 OA
ATOM     27  H   UNL d   1       4.550   6.378  13.163  0.00  0.00     0.167 HD
ENDBRANCH  24  26
ENDBRANCH  20  24
ENDBRANCH  19  20
ENDBRANCH   3  19
TORSDOF 8
ENDMDL
MODEL 2
REMARK VINA RESULT:      -0.0     16.469     19.095
REMARK  8 active torsions:
REMARK  status: ('A' for Active; 'I' for Inactive)
REMARK    1  A    between atoms: O_4  and  C_14 
REMARK    2  A    between atoms: O_4  and  C_18 
REMARK    3  A    between atoms: O_5  and  C_17 
REMARK    4  A    between atoms: O_7  and  C_23 
REMARK    5  A    between atoms: N_8  and  CA_10 
REMARK    6  A    between atoms: C_9  and  CA_10 
REMARK    7  A    between atoms: C_9  and  C_11 
REMARK    8  A    between atoms: CA_10  and  C_17 
ROOT
ATOM      1  I   UNL d   1       4.496  -1.930   0.907  0.00  0.00    -0.042 I 
ATOM      2  I   UNL d   1       5.632  -7.361   3.450  0.00  0.00    -0.042 I 
ATOM      3  C   UNL d   1       5.071  -5.942  -0.595  0.00  0.00    -0.053 A 
ATOM      4  C   UNL d   1       5.295  -6.730   0.523  0.00  0.00     0.028 A 
ATOM      5  C   UNL d   1       4.845  -4.580  -0.484  0.00  0.00     0.028 A 
ATOM      6  C   UNL d   1       5.063  -4.769   1.914  0.00  0.00     0.109 A 
ATOM      7  C   UNL d   1       4.841  -3.990   0.779  0.00  0.00     0.042 A 
ATOM      8  C   UNL d   1       5.290  -6.139   1.786  0.00  0.00     0.042 A 
ENDROOT
BRANCH   6   9
ATOM      9  O   UNL d   1       5.060  -4.191   3.152  0.00  0.00    -0.308 OA
BRANCH   9  10
ATOM     10  C   UNL d   1       3.905  -4.299   3.905  0.00  0.00     0.077 A 
ATOM     11  C   UNL d   1       2.699  -4.525   3.265  0.00  0.00     0.058 A 
ATOM     12  C   UNL d   1       1.535  -4.635   4.024  0.00  0.00     0.042 A 
ATOM     13  I   UNL d   1      -0.274  -4.975   3.035  0.00  0.00    -0.042 I 
ATOM     14  C   UNL d   1       1.595  -4.517   5.414  0.00  0.00     0.082 A 
ATOM     15  C   UNL d   1       2.819  -4.290   6.042  0.00  0.00     0.040 A 
ATOM     16  C   UNL d   1       3.983  -4.180   5.281  0.00  0.00     0.040 A 
BRANCH  14  17
ATOM     17  O   UNL d   1       0.481  -4.618   6.193  0.00  0.00    -0.359 OA
ATOM     18  H   UNL d   1       0.611  -4.104   7.008  0.00  0.00     0.217 HD
ENDBRANCH  14  17
ENDBRANCH   9  10
ENDBRANCH   6   9
BRANCH   3  19
ATOM     19  C   UNL d   1       5.076  -6.582  -1.964  0.00  0.00     0.085 C 
BRANCH  19  20
ATOM     20  CA  UNL d   1       4.006  -7.674  -2.117  0.00  0.00     0.318 C 
BRANCH  20  21
ATOM     21  N   UNL d   1       4.128  -8.305  -3.429  0.00  0.00     0.093 N 
ATOM     22  H1  UNL d   1       5.095  -8.582  -3.588  0.00  0.00     0.314 HD
ATOM     23  H2  UNL d   1       3.910  -7.627  -4.160  0.00  0.00     0.314 HD
ENDBRANCH  20  21
BRANCH  20  24
ATOM     24  C   UNL d   1       2.599  -7.111  -2.033  0.00  0.00     0.174 C 
ATOM     25  OXT UNL d   1       1.773  -7.414  -1.181  0.00  0.00    -0.648 OA
BRANCH  24  26
ATOM     26  O   UNL d   1       2.353  -6.188  -3.000  0.00  0.00    -0.775 OA
ATOM     27  H   UNL d   1       2.636  -5.289  -2.726  0.00  0.00     0.167 HD
ENDBRANCH  24  26
ENDBRANCH  20  24
ENDBRANCH  19  20
ENDBRANCH   3  19
TORSDOF 8
ENDMDL
MODEL 3
REMARK VINA RESULT:      -0.0      8.305      9.931
REMARK  8 active torsions:
REMARK  status: ('A' for Active; 'I' for Inactive)
REMARK    1  A    between atoms: O_4  and  C_14 
REMARK    2  A    between atoms: O_4  and  C_18 
REMARK    3  A    between atoms: O_5  and  C_17 
REMARK    4  A    between atoms: O_7  and  C_23 
REMARK    5  A    between atoms: N_8  and  CA_10 
REMARK    6  A    between atoms: C_9  and  CA_10 
REMARK    7  A    between atoms: C_9  and  C_11 
REMARK    8  A    between atoms: CA_10  and  C_17 
ROOT
ATOM      1  I   UNL d   1       4.864  17.344   6.230  0.00  0.00    -0.042 I 
ATOM      2  I   UNL d   1       7.325  14.227  10.864  0.00  0.00    -0.042 I 
ATOM      3  C   UNL d   1       7.707  14.105   6.559  0.00  0.00    -0.053 A 
ATOM      4  C   UNL d   1       7.837  13.860   7.917  0.00  0.00     0.028 A 
ATOM      5  C   UNL d   1       6.863  15.094   6.082  0.00  0.00     0.028 A 
ATOM      6  C   UNL d   1       6.247  15.625   8.357  0.00  0.00     0.109 A 
ATOM      7  C   UNL d   1       6.128  15.859   6.987  0.00  0.00     0.042 A 
ATOM      8  C   UNL d   1       7.102  14.625   8.821  0.00  0.00     0.042 A 
ENDROOT
BRANCH   6   9
ATOM      9  O   UNL d   1       5.528  16.375   9.244  0.00  0.00    -0.308 OA
BRANCH   9  10
ATOM     10  C   UNL d   1       4.364  15.825   9.749  0.00  0.00     0.077 A 
ATOM     11  C   UNL d   1       3.726  14.823   9.039  0.00  0.00     0.058 A 
ATOM     12  C   UNL d   1       2.552  14.269   9.549  0.00  0.00     0.042 A 
ATOM     13  I   UNL d   1       1.606  12.757   8.459  0.00  0.00    -0.042 I 
ATOM     14  C   UNL d   1       2.035  14.726  10.762  0.00  0.00     0.082 A 
ATOM     15  C   UNL d   1       2.691  15.736  11.464  0.00  0.00     0.040 A 
ATOM     16  C   UNL d   1       3.865  16.290  10.953  0.00  0.00     0.040 A 
BRANCH  14  17
ATOM     17  O   UNL d   1       0.890  14.211  11.295  0.00  0.00    -0.359 OA
ATOM     18  H   UNL d   1       0.214  14.144  10.600  0.00  0.00     0.217 HD
ENDBRANCH  14  17
ENDBRANCH   9  10
ENDBRANCH   6   9
BRANCH   3  19
ATOM     19  C   UNL d   1       8.503  13.276   5.579  0.00  0.00     0.085 C 
BRANCH  19  20
ATOM     20  CA  UNL d   1       8.183  11.775   5.666  0.00  0.00     0.318 C 
BRANCH  20  21
ATOM     21  N   UNL d   1       9.047  11.031   4.753  0.00  0.00     0.093 N 
ATOM     22  H1  UNL d   1       8.495  10.343   4.244  0.00  0.00     0.314 HD
ATOM     23  H2  UNL d   1       9.735  10.497   5.285  0.00  0.00     0.314 HD
ENDBRANCH  20  21
BRANCH  20  24
ATOM     24  C   UNL d   1       6.753  11.471   5.257  0.00  0.00     0.174 C 
ATOM     25  OXT UNL d   1       6.287  11.670   4.142  0.00  0.00    -0.648 OA
BRANCH  24  26
ATOM     26  O   UNL d   1       6.035  10.911   6.265  0.00  0.00    -0.775 OA
ATOM     27  H   UNL d   1       5.213  11.413   6.451  0.00  0.00     0.167 HD
ENDBRANCH  24  26
ENDBRANCH  20  24
ENDBRANCH  19  20
ENDBRANCH   3  19
TORSDOF 8
ENDMDL
MODEL 4
REMARK VINA RESULT:      -0.0      7.856     10.269
REMARK  8 active torsions:
REMARK  status: ('A' for Active; 'I' for Inactive)
REMARK    1  A    between atoms: O_4  and  C_14 
REMARK    2  A    between atoms: O_4  and  C_18 
REMARK    3  A    between atoms: O_5  and  C_17 
REMARK    4  A    between atoms: O_7  and  C_23 
REMARK    5  A    between atoms: N_8  and  CA_10 
REMARK    6  A    between atoms: C_9  and  CA_10 
REMARK    7  A    between atoms: C_9  and  C_11 
REMARK    8  A    between atoms: CA_10  and  C_17 
ROOT
ATOM      1  I   UNL d   1       1.265   7.042   8.145  0.00  0.00    -0.042 I 
ATOM      2  I   UNL d   1      -3.521  10.644   9.317  0.00  0.00    -0.042 I 
ATOM      3  C   UNL d   1      -2.494   6.543  10.221  0.00  0.00    -0.053 A 
ATOM      4  C   UNL d   1      -3.139   7.766  10.123  0.00  0.00     0.028 A 
ATOM      5  C   UNL d   1      -1.244   6.339   9.659  0.00  0.00     0.028 A 
ATOM      6  C   UNL d   1      -1.258   8.623   8.872  0.00  0.00     0.109 A 
ATOM      7  C   UNL d   1      -0.622   7.387   8.980  0.00  0.00     0.042 A 
ATOM      8  C   UNL d   1      -2.516   8.813   9.443  0.00  0.00     0.042 A 
ENDROOT
BRANCH   6   9
ATOM      9  O   UNL d   1      -0.649   9.650   8.207  0.00  0.00    -0.308 OA
BRANCH   9  10
ATOM     10  C   UNL d   1      -1.039   9.886   6.902  0.00  0.00     0.077 A 
ATOM     11  C   UNL d   1      -1.624   8.864   6.175  0.00  0.00     0.058 A 
ATOM     12  C   UNL d   1      -2.017   9.103   4.859  0.00  0.00     0.042 A 
ATOM     13  I   UNL d   1      -2.897   7.543   3.780  0.00  0.00    -0.042 I 
ATOM     14  C   UNL d   1      -1.820  10.362   4.289  0.00  0.00     0.082 A 
ATOM     15  C   UNL d   1      -1.230  11.380   5.037  0.00  0.00     0.040 A 
ATOM     16  C   UNL d   1      -0.837  11.140   6.354  0.00  0.00     0.040 A 
BRANCH  14  17
ATOM     17  O   UNL d   1      -2.190  10.637   3.006  0.00  0.00    -0.359 OA
ATOM     18  H   UNL d   1      -3.146  10.485   2.908  0.00  0.00     0.217 HD
ENDBRANCH  14  17
ENDBRANCH   9  10
ENDBRANCH   6   9
BRANCH   3  19
ATOM     19  C   UNL d   1      -3.167   5.409  10.957  0.00  0.00     0.085 C 
BRANCH  19  20
ATOM     20  CA  UNL d   1      -4.535   5.038  10.362  0.00  0.00     0.318 C 
BRANCH  20  21
ATOM     21  N   UNL d   1      -5.164   4.001  11.176  0.00  0.00     0.093 N 
ATOM     22  H1  UNL d   1      -4.942   4.156  12.159  0.00  0.00     0.314 HD
ATOM     23  H2  UNL d   1      -4.768   3.091  10.943  0.00  0.00     0.314 HD
ENDBRANCH  20  21
BRANCH  20  24
ATOM     24  C   UNL d   1      -4.412   4.474   8.957  0.00  0.00     0.174 C 
ATOM     25  OXT UNL d   1      -3.765   3.479   8.657  0.00  0.00    -0.648 OA
BRANCH  24  26
ATOM     26  O   UNL d   1      -5.138   5.180   8.052  0.00  0.00    -0.775 OA
ATOM     27  H   UNL d   1      -4.780   6.084   7.922  0.00  0.00     0.167 HD
ENDBRANCH  24  26
ENDBRANCH  20  24
ENDBRANCH  19  20
ENDBRANCH   3  19
TORSDOF 8
ENDMDL
MODEL 5
REMARK VINA RESULT:      -0.0     20.427     22.556
REMARK  8 active torsions:
REMARK  status: ('A' for Active; 'I' for Inactive)
REMARK    1  A    between atoms: O_4  and  C_14 
REMARK    2  A    between atoms: O_4  and  C_18 
REMARK    3  A    between atoms: O_5  and  C_17 
REMARK    4  A    between atoms: O_7  and  C_23 
REMARK    5  A    between atoms: N_8  and  CA_10 
REMARK    6  A    between atoms: C_9  and  CA_10 
REMARK    7  A    between atoms: C_9  and  C_11 
REMARK    8  A    between atoms: CA_10  and  C_17 
ROOT
ATOM      1  I   UNL d   1      -8.834  -2.713  -3.452  0.00  0.00    -0.042 I 
ATOM      2  I   UNL d   1      -6.725   1.633  -7.183  0.00  0.00    -0.042 I 
ATOM      3  C   UNL d   1      -4.915  -1.189  -4.453  0.00  0.00    -0.053 A 
ATOM      4  C   UNL d   1      -5.132  -0.185  -5.383  0.00  0.00     0.028 A 
ATOM      5  C   UNL d   1      -5.967  -1.905  -3.906  0.00  0.00     0.028 A 
ATOM      6  C   UNL d   1      -7.507  -0.602  -5.234  0.00  0.00     0.109 A 
ATOM      7  C   UNL d   1      -7.272  -1.609  -4.299  0.00  0.00     0.042 A 
ATOM      8  C   UNL d   1      -6.437   0.111  -5.776  0.00  0.00     0.042 A 
ENDROOT
BRANCH   6   9
ATOM      9  O   UNL d   1      -8.785  -0.312  -5.620  0.00  0.00    -0.308 OA
BRANCH   9  10
ATOM     10  C   UNL d   1      -9.402   0.772  -5.024  0.00  0.00     0.077 A 
ATOM     11  C   UNL d   1      -8.953   1.213  -3.791  0.00  0.00     0.058 A 
ATOM     12  C   UNL d   1      -9.576   2.307  -3.191  0.00  0.00     0.042 A 
ATOM     13  I   UNL d   1      -8.881   2.953  -1.329  0.00  0.00    -0.042 I 
ATOM     14  C   UNL d   1     -10.639   2.943  -3.834  0.00  0.00     0.082 A 
ATOM     15  C   UNL d   1     -11.078   2.486  -5.076  0.00  0.00     0.040 A 
ATOM     16  C   UNL d   1     -10.454   1.392  -5.676  0.00  0.00     0.040 A 
BRANCH  14  17
ATOM     17  O   UNL d   1     -11.275   4.016  -3.281  0.00  0.00    -0.359 OA
ATOM     18  H   UNL d   1     -10.624   4.714  -3.096  0.00  0.00     0.217 HD
ENDBRANCH  14  17
ENDBRANCH   9  10
ENDBRANCH   6   9
BRANCH   3  19
ATOM     19  C   UNL d   1      -3.501  -1.509  -4.028  0.00  0.00     0.085 C 
BRANCH  19  20
ATOM     20  CA  UNL d   1      -2.768  -0.298  -3.429  0.00  0.00     0.318 C 
BRANCH  20  21
ATOM     21  N   UNL d   1      -1.385  -0.658  -3.127  0.00  0.00     0.093 N 
ATOM     22  H1  UNL d   1      -1.265  -0.738  -2.118  0.00  0.00     0.314 HD
ATOM     23  H2  UNL d   1      -0.760   0.093  -3.421  0.00  0.00     0.314 HD
ENDBRANCH  20  21
BRANCH  20  24
ATOM     24  C   UNL d   1      -3.394   0.161  -2.124  0.00  0.00     0.174 C 
ATOM     25  OXT UNL d   1      -3.884   1.267  -1.934  0.00  0.00    -0.648 OA
BRANCH  24  26
ATOM     26  O   UNL d   1      -3.388  -0.814  -1.177  0.00  0.00    -0.775 OA
ATOM     27  H   UNL d   1      -2.665  -1.460  -1.324  0.00  0.00     0.167 HD
ENDBRANCH  24  26
ENDBRANCH  20  24
ENDBRANCH  19  20
ENDBRANCH   3  19
TORSDOF 8
ENDMDL
MODEL 6
REMARK VINA RESULT:      -0.0     14.730     17.801
REMARK  8 active torsions:
REMARK  status: ('A' for Active; 'I' for Inactive)
REMARK    1  A    between atoms: O_4  and  C_14 
REMARK    2  A    between atoms: O_4  and  C_18 
REMARK    3  A    between atoms: O_5  and  C_17 
REMARK    4  A    between atoms: O_7  and  C_23 
REMARK    5  A    between atoms: N_8  and  CA_10 
REMARK    6  A    between atoms: C_9  and  CA_10 
REMARK    7  A    between atoms: C_9  and  C_11 
REMARK    8  A    between atoms: CA_10  and  C_17 
ROOT
ATOM      1  I   UNL d   1       7.257  -1.982   6.275  0.00  0.00    -0.042 I 
ATOM      2  I   UNL d   1       6.263  -7.859   4.963  0.00  0.00    -0.042 I 
ATOM      3  C   UNL d   1       5.178  -5.233   8.222  0.00  0.00    -0.053 A 
ATOM      4  C   UNL d   1       5.331  -6.328   7.386  0.00  0.00     0.028 A 
ATOM      5  C   UNL d   1       5.725  -4.001   7.905  0.00  0.00     0.028 A 
ATOM      6  C   UNL d   1       6.610  -4.950   5.867  0.00  0.00     0.109 A 
ATOM      7  C   UNL d   1       6.446  -3.859   6.720  0.00  0.00     0.042 A 
ATOM      8  C   UNL d   1       6.053  -6.185   6.201  0.00  0.00     0.042 A 
ENDROOT
BRANCH   6   9
ATOM      9  O   UNL d   1       7.315  -4.811   4.706  0.00  0.00    -0.308 OA
BRANCH   9  10
ATOM     10  C   UNL d   1       8.632  -5.233   4.704  0.00  0.00     0.077 A 
ATOM     11  C   UNL d   1       9.315  -5.323   5.904  0.00  0.00     0.058 A 
ATOM     12  C   UNL d   1      10.643  -5.749   5.901  0.00  0.00     0.042 A 
ATOM     13  I   UNL d   1      11.654  -5.877   7.726  0.00  0.00    -0.042 I 
ATOM     14  C   UNL d   1      11.268  -6.078   4.698  0.00  0.00     0.082 A 
ATOM     15  C   UNL d   1      10.564  -5.981   3.498  0.00  0.00     0.040 A 
ATOM     16  C   UNL d   1       9.236  -5.555   3.501  0.00  0.00     0.040 A 
BRANCH  14  17
ATOM     17  O   UNL d   1      12.564  -6.498   4.652  0.00  0.00    -0.359 OA
ATOM     18  H   UNL d   1      12.873  -6.486   3.730  0.00  0.00     0.217 HD
ENDBRANCH  14  17
ENDBRANCH   9  10
ENDBRANCH   6   9
BRANCH   3  19
ATOM     19  C   UNL d   1       4.396  -5.388   9.505  0.00  0.00     0.085 C 
BRANCH  19  20
ATOM     20  CA  UNL d   1       4.981  -6.462  10.436  0.00  0.00     0.318 C 
BRANCH  20  21
ATOM     21  N   UNL d   1       4.127  -6.617  11.611  0.00  0.00     0.093 N 
ATOM     22  H1  UNL d   1       4.464  -7.392  12.179  0.00  0.00     0.314 HD
ATOM     23  H2  UNL d   1       3.184  -6.877  11.320  0.00  0.00     0.314 HD
ENDBRANCH  20  21
BRANCH  20  24
ATOM     24  C   UNL d   1       6.360  -6.085  10.948  0.00  0.00     0.174 C 
ATOM     25  OXT UNL d   1       6.602  -5.122  11.665  0.00  0.00    -0.648 OA
BRANCH  24  26
ATOM     26  O   UNL d   1       7.317  -6.964  10.550  0.00  0.00    -0.775 OA
ATOM     27  H   UNL d   1       8.209  -6.554  10.544  0.00  0.00     0.167 HD
ENDBRANCH  24  26
ENDBRANCH  20  24
ENDBRANCH  19  20
ENDBRANCH   3  19
TORSDOF 8
ENDMDL
MODEL 7
REMARK VINA RESULT:      -0.0     27.615     30.004
REMARK  8 active torsions:
REMARK  status: ('A' for Active; 'I' for Inactive)
REMARK    1  A    between atoms: O_4  and  C_14 
REMARK    2  A    between atoms: O_4  and  C_18 
REMARK    3  A    between atoms: O_5  and  C_17 
REMARK    4  A    between atoms: O_7  and  C_23 
REMARK    5  A    between atoms: N_8  and  CA_10 
REMARK    6  A    between atoms: C_9  and  CA_10 
REMARK    7  A    between atoms: C_9  and  C_11 
REMARK    8  A    between atoms: CA_10  and  C_17 
ROOT
ATOM      1  I   UNL d   1       0.038  -4.083  -9.269  0.00  0.00    -0.042 I 
ATOM      2  I   UNL d   1      -5.935  -4.236 -10.510  0.00  0.00    -0.042 I 
ATOM      3  C   UNL d   1      -2.702  -7.098 -10.710  0.00  0.00    -0.053 A 
ATOM      4  C   UNL d   1      -3.940  -6.478 -10.775  0.00  0.00     0.028 A 
ATOM      5  C   UNL d   1      -1.574  -6.417 -10.283  0.00  0.00     0.028 A 
ATOM      6  C   UNL d   1      -2.924  -4.439  -9.969  0.00  0.00     0.109 A 
ATOM      7  C   UNL d   1      -1.686  -5.078  -9.910  0.00  0.00     0.042 A 
ATOM      8  C   UNL d   1      -4.051  -5.139 -10.401  0.00  0.00     0.042 A 
ENDROOT
BRANCH   6   9
ATOM      9  O   UNL d   1      -3.034  -3.127  -9.602  0.00  0.00    -0.308 OA
BRANCH   9  10
ATOM     10  C   UNL d   1      -3.045  -2.181 -10.610  0.00  0.00     0.077 A 
ATOM     11  C   UNL d   1      -2.495  -2.497 -11.841  0.00  0.00     0.058 A 
ATOM     12  C   UNL d   1      -2.507  -1.543 -12.857  0.00  0.00     0.042 A 
ATOM     13  I   UNL d   1      -1.670  -2.043 -14.706  0.00  0.00    -0.042 I 
ATOM     14  C   UNL d   1      -3.068  -0.286 -12.627  0.00  0.00     0.082 A 
ATOM     15  C   UNL d   1      -3.619   0.015 -11.382  0.00  0.00     0.040 A 
ATOM     16  C   UNL d   1      -3.607  -0.941 -10.366  0.00  0.00     0.040 A 
BRANCH  14  17
ATOM     17  O   UNL d   1      -3.100   0.675 -13.594  0.00  0.00    -0.359 OA
ATOM     18  H   UNL d   1      -2.230   1.108 -13.645  0.00  0.00     0.217 HD
ENDBRANCH  14  17
ENDBRANCH   9  10
ENDBRANCH   6   9
BRANCH   3  19
ATOM     19  C   UNL d   1      -2.582  -8.549 -11.115  0.00  0.00     0.085 C 
BRANCH  19  20
ATOM     20  CA  UNL d   1      -3.001  -8.801 -12.571  0.00  0.00     0.318 C 
BRANCH  20  21
ATOM     21  N   UNL d   1      -2.939 -10.231 -12.864  0.00  0.00     0.093 N 
ATOM     22  H1  UNL d   1      -2.620 -10.371 -13.821  0.00  0.00     0.314 HD
ATOM     23  H2  UNL d   1      -3.876 -10.633 -12.822  0.00  0.00     0.314 HD
ENDBRANCH  20  21
BRANCH  20  24
ATOM     24  C   UNL d   1      -2.075  -8.114 -13.559  0.00  0.00     0.174 C 
ATOM     25  OXT UNL d   1      -2.414  -7.233 -14.340  0.00  0.00    -0.648 OA
BRANCH  24  26
ATOM     26  O   UNL d   1      -0.795  -8.559 -13.464  0.00  0.00    -0.775 OA
ATOM     27  H   UNL d   1      -0.430  -8.809 -14.339  0.00  0.00     0.167 HD
ENDBRANCH  24  26
ENDBRANCH  20  24
ENDBRANCH  19  20
ENDBRANCH   3  19
TORSDOF 8
ENDMDL
MODEL 8
REMARK VINA RESULT:       0.0     15.831     17.351
REMARK  8 active torsions:
REMARK  status: ('A' for Active; 'I' for Inactive)
REMARK    1  A    between atoms: O_4  and  C_14 
REMARK    2  A    between atoms: O_4  and  C_18 
REMARK    3  A    between atoms: O_5  and  C_17 
REMARK    4  A    between atoms: O_7  and  C_23 
REMARK    5  A    between atoms: N_8  and  CA_10 
REMARK    6  A    between atoms: C_9  and  CA_10 
REMARK    7  A    between atoms: C_9  and  C_11 
REMARK    8  A    between atoms: CA_10  and  C_17 
ROOT
ATOM      1  I   UNL d   1      -5.112   1.954   5.116  0.00  0.00    -0.042 I 
ATOM      2  I   UNL d   1      -7.233  -2.072   1.049  0.00  0.00    -0.042 I 
ATOM      3  C   UNL d   1      -6.022   2.075   0.892  0.00  0.00    -0.053 A 
ATOM      4  C   UNL d   1      -6.475   0.805   0.572  0.00  0.00     0.028 A 
ATOM      5  C   UNL d   1      -5.636   2.399   2.182  0.00  0.00     0.028 A 
ATOM      6  C   UNL d   1      -6.159   0.145   2.874  0.00  0.00     0.109 A 
ATOM      7  C   UNL d   1      -5.705   1.427   3.180  0.00  0.00     0.042 A 
ATOM      8  C   UNL d   1      -6.544  -0.166   1.570  0.00  0.00     0.042 A 
ENDROOT
BRANCH   6   9
ATOM      9  O   UNL d   1      -6.226  -0.807   3.852  0.00  0.00    -0.308 OA
BRANCH   9  10
ATOM     10  C   UNL d   1      -7.459  -1.039   4.434  0.00  0.00     0.077 A 
ATOM     11  C   UNL d   1      -8.428  -0.051   4.383  0.00  0.00     0.058 A 
ATOM     12  C   UNL d   1      -9.670  -0.286   4.971  0.00  0.00     0.042 A 
ATOM     13  I   UNL d   1     -11.116   1.221   4.882  0.00  0.00    -0.042 I 
ATOM     14  C   UNL d   1      -9.925  -1.505   5.600  0.00  0.00     0.082 A 
ATOM     15  C   UNL d   1      -8.938  -2.489   5.641  0.00  0.00     0.040 A 
ATOM     16  C   UNL d   1      -7.695  -2.253   5.054  0.00  0.00     0.040 A 
BRANCH  14  17
ATOM     17  O   UNL d   1     -11.127  -1.774   6.187  0.00  0.00    -0.359 OA
ATOM     18  H   UNL d   1     -11.024  -1.756   7.153  0.00  0.00     0.217 HD
ENDBRANCH  14  17
ENDBRANCH   9  10
ENDBRANCH   6   9
BRANCH   3  19
ATOM     19  C   UNL d   1      -5.947   3.127  -0.190  0.00  0.00     0.085 C 
BRANCH  19  20
ATOM     20  CA  UNL d   1      -7.307   3.408  -0.846  0.00  0.00     0.318 C 
BRANCH  20  21
ATOM     21  N   UNL d   1      -7.142   4.367  -1.936  0.00  0.00     0.093 N 
ATOM     22  H1  UNL d   1      -7.390   5.300  -1.610  0.00  0.00     0.314 HD
ATOM     23  H2  UNL d   1      -7.798   4.152  -2.688  0.00  0.00     0.314 HD
ENDBRANCH  20  21
BRANCH  20  24
ATOM     24  C   UNL d   1      -8.296   4.023   0.129  0.00  0.00     0.174 C 
ATOM     25  OXT UNL d   1      -8.152   5.106   0.682  0.00  0.00    -0.648 OA
BRANCH  24  26
ATOM     26  O   UNL d   1      -9.399   3.248   0.304  0.00  0.00    -0.775 OA
ATOM     27  H   UNL d   1      -9.411   2.486  -0.314  0.00  0.00     0.167 HD
ENDBRANCH  24  26
ENDBRANCH  20  24
ENDBRANCH  19  20
ENDBRANCH   3  19
TORSDOF 8
ENDMDL
MODEL 9
REMARK VINA RESULT:       0.0     24.235     27.720
REMARK  8 active torsions:
REMARK  status: ('A' for Active; 'I' for Inactive)
REMARK    1  A    between atoms: O_4  and  C_14 
REMARK    2  A    between atoms: O_4  and  C_18 
REMARK    3  A    between atoms: O_5  and  C_17 
REMARK    4  A    between atoms: O_7  and  C_23 
REMARK    5  A    between atoms: N_8  and  CA_10 
REMARK    6  A    between atoms: C_9  and  CA_10 
REMARK    7  A    between atoms: C_9  and  C_11 
REMARK    8  A    between atoms: CA_10  and  C_17 
ROOT
ATOM      1  I   UNL d   1      10.179  -7.511  -7.985  0.00  0.00    -0.042 I 
ATOM      2  I   UNL d   1       8.460  -2.631 -11.222  0.00  0.00    -0.042 I 
ATOM      3  C   UNL d   1      12.235  -4.564 -10.387  0.00  0.00    -0.053 A 
ATOM      4  C   UNL d   1      11.249  -3.710 -10.854  0.00  0.00     0.028 A 
ATOM      5  C   UNL d   1      11.930  -5.642  -9.573  0.00  0.00     0.028 A 
ATOM      6  C   UNL d   1       9.597  -5.022  -9.677  0.00  0.00     0.109 A 
ATOM      7  C   UNL d   1      10.602  -5.872  -9.215  0.00  0.00     0.042 A 
ATOM      8  C   UNL d   1       9.921  -3.941 -10.497  0.00  0.00     0.042 A 
ENDROOT
BRANCH   6   9
ATOM      9  O   UNL d   1       8.296  -5.249  -9.328  0.00  0.00    -0.308 OA
BRANCH   9  10
ATOM     10  C   UNL d   1       7.775  -4.502  -8.287  0.00  0.00     0.077 A 
ATOM     11  C   UNL d   1       8.636  -3.945  -7.357  0.00  0.00     0.058 A 
ATOM     12  C   UNL d   1       8.109  -3.193  -6.308  0.00  0.00     0.042 A 
ATOM     13  I   UNL d   1       9.428  -2.363  -4.915  0.00  0.00    -0.042 I 
ATOM     14  C   UNL d   1       6.730  -3.009  -6.204  0.00  0.00     0.082 A 
ATOM     15  C   UNL d   1       5.878  -3.577  -7.151  0.00  0.00     0.040 A 
ATOM     16  C   UNL d   1       6.405  -4.330  -8.200  0.00  0.00     0.040 A 
BRANCH  14  17
ATOM     17  O   UNL d   1       6.175  -2.280  -5.194  0.00  0.00    -0.359 OA
ATOM     18  H   UNL d   1       6.760  -2.311  -4.417  0.00  0.00     0.217 HD
ENDBRANCH  14  17
ENDBRANCH   9  10
ENDBRANCH   6   9
BRANCH   3  19
ATOM     19  C   UNL d   1      13.674  -4.313 -10.774  0.00  0.00     0.085 C 
BRANCH  19  20
ATOM     20  CA  UNL d   1      14.176  -2.926 -10.346  0.00  0.00     0.318 C 
BRANCH  20  21
ATOM     21  N   UNL d   1      15.538  -2.720 -10.834  0.00  0.00     0.093 N 
ATOM     22  H1  UNL d   1      16.134  -2.416 -10.065  0.00  0.00     0.314 HD
ATOM     23  H2  UNL d   1      15.550  -1.959 -11.513  0.00  0.00     0.314 HD
ENDBRANCH  20  21
BRANCH  20  24
ATOM     24  C   UNL d   1      14.227  -2.778  -8.836  0.00  0.00     0.174 C 
ATOM     25  OXT UNL d   1      14.891  -3.482  -8.086  0.00  0.00    -0.648 OA
BRANCH  24  26
ATOM     26  O   UNL d   1      13.473  -1.738  -8.392  0.00  0.00    -0.775 OA
ATOM     27  H   UNL d   1      13.713  -1.477  -7.478  0.00  0.00     0.167 HD
ENDBRANCH  24  26
ENDBRANCH  20  24
ENDBRANCH  19  20
ENDBRANCH   3  19
TORSDOF 8
ENDMDL
