MODEL 1
REMARK VINA RESULT:      -0.0      0.000      0.000
REMARK  1 active torsions:
REMARK  status: ('A' for Active; 'I' for Inactive)
REMARK    1  A    between atoms: O_1  and  C_13 
ROOT
ATOM      1  O   UNL d   1       5.968   8.266  14.638  0.00  0.00    -0.298 OA
ATOM      2  C   UNL d   1      11.004   7.225  18.459  0.00  0.00    -0.005 C 
ATOM      3  C   UNL d   1      10.868   8.172  17.225  0.00  0.00    -0.002 C 
ATOM      4  C   UNL d   1      12.485   7.128  18.838  0.00  0.00     0.001 C 
ATOM      5  C   UNL d   1      13.100   8.493  19.201  0.00  0.00    -0.014 C 
ATOM      6  C   UNL d   1       9.380   8.294  16.723  0.00  0.00    -0.036 C 
ATOM      7  C   UNL d   1       8.821   6.858  16.469  0.00  0.00     0.001 C 
ATOM      8  C   UNL d   1      11.575   9.537  17.459  0.00  0.00     0.007 C 
ATOM      9  C   UNL d   1      13.023   9.395  17.961  0.00  0.00     0.012 C 
ATOM     10  C   UNL d   1      10.418   5.842  18.151  0.00  0.00     0.006 C 
ATOM     11  C   UNL d   1      12.899   6.231  20.003  0.00  0.00     0.008 C 
ATOM     12  C   UNL d   1      14.522   8.037  19.578  0.00  0.00     0.126 C 
ATOM     13  C   UNL d   1       8.970   5.928  17.681  0.00  0.00     0.006 C 
ATOM     14  C   UNL d   1      14.296   6.747  20.392  0.00  0.00     0.033 C 
ATOM     15  C   UNL d   1       9.339   9.089  15.378  0.00  0.00     0.017 C 
ATOM     16  C   UNL d   1      12.427   9.206  20.402  0.00  0.00     0.018 C 
ATOM     17  C   UNL d   1       8.511   9.054  17.759  0.00  0.00     0.016 C 
ATOM     18  C   UNL d   1       7.358   6.872  15.997  0.00  0.00     0.083 C 
ATOM     19  C   UNL d   1       8.318   8.602  14.350  0.00  0.00     0.079 C 
ATOM     20  C   UNL d   1       7.111   7.964  14.984  0.00  0.00     0.127 C 
ENDROOT
BRANCH  12  21
ATOM     21  O   UNL d   1      15.236   9.007  20.320  0.00  0.00    -0.395 OA
ATOM     22  H   UNL d   1      15.058   8.874  21.266  0.00  0.00     0.210 HD
ENDBRANCH  12  21
TORSDOF 1
ENDMDL
MODEL 2
REMARK VINA RESULT:       0.0      7.139      8.278
REMARK  1 active torsions:
REMARK  status: ('A' for Active; 'I' for Inactive)
REMARK    1  A    between atoms: O_1  and  C_13 
ROOT
ATOM      1  O   UNL d   1      14.567  14.407  11.882  0.00  0.00    -0.298 OA
ATOM      2  C   UNL d   1      14.835   8.080  12.842  0.00  0.00    -0.005 C 
ATOM      3  C   UNL d   1      15.519   8.950  11.742  0.00  0.00    -0.002 C 
ATOM      4  C   UNL d   1      14.983   6.604  12.458  0.00  0.00     0.001 C 
ATOM      5  C   UNL d   1      16.454   6.163  12.331  0.00  0.00    -0.014 C 
ATOM      6  C   UNL d   1      15.373  10.493  12.020  0.00  0.00    -0.036 C 
ATOM      7  C   UNL d   1      13.859  10.822  12.221  0.00  0.00     0.001 C 
ATOM      8  C   UNL d   1      16.976   8.490  11.458  0.00  0.00     0.007 C 
ATOM      9  C   UNL d   1      17.098   6.977  11.201  0.00  0.00     0.012 C 
ATOM     10  C   UNL d   1      13.360   8.467  13.004  0.00  0.00     0.006 C 
ATOM     11  C   UNL d   1      14.368   5.534  13.358  0.00  0.00     0.008 C 
ATOM     12  C   UNL d   1      16.242   4.671  12.011  0.00  0.00     0.126 C 
ATOM     13  C   UNL d   1      13.190   9.953  13.295  0.00  0.00     0.006 C 
ATOM     14  C   UNL d   1      15.105   4.243  12.959  0.00  0.00     0.033 C 
ATOM     15  C   UNL d   1      15.899  11.305  10.793  0.00  0.00     0.017 C 
ATOM     16  C   UNL d   1      17.290   6.322  13.627  0.00  0.00     0.018 C 
ATOM     17  C   UNL d   1      16.203  10.908  13.263  0.00  0.00     0.016 C 
ATOM     18  C   UNL d   1      13.616  12.309  12.525  0.00  0.00     0.083 C 
ATOM     19  C   UNL d   1      15.117  12.573  10.450  0.00  0.00     0.079 C 
ATOM     20  C   UNL d   1      14.469  13.201  11.655  0.00  0.00     0.127 C 
ENDROOT
BRANCH  12  21
ATOM     21  O   UNL d   1      17.408   3.893  12.205  0.00  0.00    -0.395 OA
ATOM     22  H   UNL d   1      18.160   4.487  12.367  0.00  0.00     0.210 HD
ENDBRANCH  12  21
TORSDOF 1
ENDMDL
MODEL 3
REMARK VINA RESULT:       0.0      7.020      8.472
REMARK  1 active torsions:
REMARK  status: ('A' for Active; 'I' for Inactive)
REMARK    1  A    between atoms: O_1  and  C_13 
ROOT
ATOM      1  O   UNL d   1      11.953  12.822  10.237  0.00  0.00    -0.298 OA
ATOM      2  C   UNL d   1      12.222   6.494  11.197  0.00  0.00    -0.005 C 
ATOM      3  C   UNL d   1      12.906   7.365  10.097  0.00  0.00    -0.002 C 
ATOM      4  C   UNL d   1      12.369   5.018  10.813  0.00  0.00     0.001 C 
ATOM      5  C   UNL d   1      13.840   4.577  10.686  0.00  0.00    -0.014 C 
ATOM      6  C   UNL d   1      12.759   8.908  10.375  0.00  0.00    -0.036 C 
ATOM      7  C   UNL d   1      11.246   9.237  10.577  0.00  0.00     0.001 C 
ATOM      8  C   UNL d   1      14.363   6.904   9.813  0.00  0.00     0.007 C 
ATOM      9  C   UNL d   1      14.485   5.391   9.556  0.00  0.00     0.012 C 
ATOM     10  C   UNL d   1      10.746   6.881  11.359  0.00  0.00     0.006 C 
ATOM     11  C   UNL d   1      11.754   3.948  11.713  0.00  0.00     0.008 C 
ATOM     12  C   UNL d   1      13.629   3.086  10.366  0.00  0.00     0.126 C 
ATOM     13  C   UNL d   1      10.577   8.368  11.650  0.00  0.00     0.006 C 
ATOM     14  C   UNL d   1      12.492   2.658  11.314  0.00  0.00     0.033 C 
ATOM     15  C   UNL d   1      13.285   9.719   9.148  0.00  0.00     0.017 C 
ATOM     16  C   UNL d   1      14.676   4.737  11.982  0.00  0.00     0.018 C 
ATOM     17  C   UNL d   1      13.589   9.323  11.619  0.00  0.00     0.016 C 
ATOM     18  C   UNL d   1      11.002  10.723  10.880  0.00  0.00     0.083 C 
ATOM     19  C   UNL d   1      12.504  10.988   8.805  0.00  0.00     0.079 C 
ATOM     20  C   UNL d   1      11.855  11.616  10.010  0.00  0.00     0.127 C 
ENDROOT
BRANCH  12  21
ATOM     21  O   UNL d   1      14.795   2.308  10.560  0.00  0.00    -0.395 OA
ATOM     22  H   UNL d   1      15.546   2.902  10.722  0.00  0.00     0.210 HD
ENDBRANCH  12  21
TORSDOF 1
ENDMDL
MODEL 4
REMARK VINA RESULT:       0.0      5.813      6.645
REMARK  1 active torsions:
REMARK  status: ('A' for Active; 'I' for Inactive)
REMARK    1  A    between atoms: O_1  and  C_13 
ROOT
ATOM      1  O   UNL d   1      13.066  12.285  13.103  0.00  0.00    -0.298 OA
ATOM      2  C   UNL d   1      14.272   6.157  14.527  0.00  0.00    -0.005 C 
ATOM      3  C   UNL d   1      14.924   7.076  13.446  0.00  0.00    -0.002 C 
ATOM      4  C   UNL d   1      14.707   4.712  14.264  0.00  0.00     0.001 C 
ATOM      5  C   UNL d   1      16.235   4.526  14.324  0.00  0.00    -0.014 C 
ATOM      6  C   UNL d   1      14.491   8.582  13.599  0.00  0.00    -0.036 C 
ATOM      7  C   UNL d   1      12.931   8.654  13.616  0.00  0.00     0.001 C 
ATOM      8  C   UNL d   1      16.460   6.861  13.350  0.00  0.00     0.007 C 
ATOM      9  C   UNL d   1      16.862   5.381  13.213  0.00  0.00     0.012 C 
ATOM     10  C   UNL d   1      12.744   6.290  14.505  0.00  0.00     0.006 C 
ATOM     11  C   UNL d   1      14.179   3.598  15.167  0.00  0.00     0.008 C 
ATOM     12  C   UNL d   1      16.314   3.007  14.089  0.00  0.00     0.126 C 
ATOM     13  C   UNL d   1      12.297   7.738  14.672  0.00  0.00     0.006 C 
ATOM     14  C   UNL d   1      15.162   2.437  14.940  0.00  0.00     0.033 C 
ATOM     15  C   UNL d   1      15.013   9.409  12.380  0.00  0.00     0.017 C 
ATOM     16  C   UNL d   1      16.878   4.894  15.686  0.00  0.00     0.018 C 
ATOM     17  C   UNL d   1      15.091   9.198  14.891  0.00  0.00     0.016 C 
ATOM     18  C   UNL d   1      12.410  10.089  13.788  0.00  0.00     0.083 C 
ATOM     19  C   UNL d   1      14.076  10.504  11.869  0.00  0.00     0.079 C 
ATOM     20  C   UNL d   1      13.197  11.071  12.952  0.00  0.00     0.127 C 
ENDROOT
BRANCH  12  21
ATOM     21  O   UNL d   1      17.563   2.454  14.458  0.00  0.00    -0.395 OA
ATOM     22  H   UNL d   1      18.181   3.176  14.656  0.00  0.00     0.210 HD
ENDBRANCH  12  21
TORSDOF 1
ENDMDL
MODEL 5
REMARK VINA RESULT:       0.0     33.161     36.203
REMARK  1 active torsions:
REMARK  status: ('A' for Active; 'I' for Inactive)
REMARK    1  A    between atoms: O_1  and  C_13 
ROOT
ATOM      1  O   UNL d   1     -17.045 -19.757  13.624  0.00  0.00    -0.298 OA
ATOM      2  C   UNL d   1     -14.137 -15.725   9.585  0.00  0.00    -0.005 C 
ATOM      3  C   UNL d   1     -15.644 -15.827   9.977  0.00  0.00    -0.002 C 
ATOM      4  C   UNL d   1     -14.010 -14.795   8.373  0.00  0.00     0.001 C 
ATOM      5  C   UNL d   1     -14.540 -13.375   8.652  0.00  0.00    -0.014 C 
ATOM      6  C   UNL d   1     -15.885 -16.809  11.184  0.00  0.00    -0.036 C 
ATOM      7  C   UNL d   1     -15.236 -18.188  10.842  0.00  0.00     0.001 C 
ATOM      8  C   UNL d   1     -16.295 -14.427  10.155  0.00  0.00     0.007 C 
ATOM      9  C   UNL d   1     -16.038 -13.479   8.970  0.00  0.00     0.012 C 
ATOM     10  C   UNL d   1     -13.557 -17.112   9.283  0.00  0.00     0.006 C 
ATOM     11  C   UNL d   1     -12.632 -14.547   7.764  0.00  0.00     0.008 C 
ATOM     12  C   UNL d   1     -14.213 -12.715   7.299  0.00  0.00     0.126 C 
ATOM     13  C   UNL d   1     -13.758 -18.078  10.444  0.00  0.00     0.006 C 
ATOM     14  C   UNL d   1     -12.812 -13.254   6.949  0.00  0.00     0.033 C 
ATOM     15  C   UNL d   1     -17.418 -17.020  11.398  0.00  0.00     0.017 C 
ATOM     16  C   UNL d   1     -13.817 -12.630   9.803  0.00  0.00     0.018 C 
ATOM     17  C   UNL d   1     -15.292 -16.225  12.494  0.00  0.00     0.016 C 
ATOM     18  C   UNL d   1     -15.398 -19.211  11.977  0.00  0.00     0.083 C 
ATOM     19  C   UNL d   1     -17.845 -18.431  11.802  0.00  0.00     0.079 C 
ATOM     20  C   UNL d   1     -16.782 -19.162  12.579  0.00  0.00     0.127 C 
ENDROOT
BRANCH  12  21
ATOM     21  O   UNL d   1     -14.233 -11.301   7.354  0.00  0.00    -0.395 OA
ATOM     22  H   UNL d   1     -14.355 -11.024   8.277  0.00  0.00     0.210 HD
ENDBRANCH  12  21
TORSDOF 1
ENDMDL
MODEL 6
REMARK VINA RESULT:       0.0     31.010     34.216
REMARK  1 active torsions:
REMARK  status: ('A' for Active; 'I' for Inactive)
REMARK    1  A    between atoms: O_1  and  C_13 
ROOT
ATOM      1  O   UNL d   1     -15.389 -19.346  12.764  0.00  0.00    -0.298 OA
ATOM      2  C   UNL d   1     -11.321 -15.610   9.519  0.00  0.00    -0.005 C 
ATOM      3  C   UNL d   1     -12.881 -15.651   9.483  0.00  0.00    -0.002 C 
ATOM      4  C   UNL d   1     -10.829 -14.748   8.351  0.00  0.00     0.001 C 
ATOM      5  C   UNL d   1     -11.356 -13.302   8.411  0.00  0.00    -0.014 C 
ATOM      6  C   UNL d   1     -13.484 -16.561  10.617  0.00  0.00    -0.036 C 
ATOM      7  C   UNL d   1     -12.823 -17.974  10.527  0.00  0.00     0.001 C 
ATOM      8  C   UNL d   1     -13.499 -14.226   9.414  0.00  0.00     0.007 C 
ATOM      9  C   UNL d   1     -12.887 -13.349   8.307  0.00  0.00     0.012 C 
ATOM     10  C   UNL d   1     -10.737 -17.027   9.448  0.00  0.00     0.006 C 
ATOM     11  C   UNL d   1      -9.327 -14.570   8.137  0.00  0.00     0.008 C 
ATOM     12  C   UNL d   1     -10.644 -12.723   7.175  0.00  0.00     0.126 C 
ATOM     13  C   UNL d   1     -11.289 -17.925  10.549  0.00  0.00     0.006 C 
ATOM     14  C   UNL d   1      -9.224 -13.317   7.250  0.00  0.00     0.033 C 
ATOM     15  C   UNL d   1     -15.024 -16.719  10.407  0.00  0.00     0.017 C 
ATOM     16  C   UNL d   1     -10.948 -12.518   9.685  0.00  0.00     0.018 C 
ATOM     17  C   UNL d   1     -13.251 -15.926  12.013  0.00  0.00     0.016 C 
ATOM     18  C   UNL d   1     -13.332 -18.932  11.616  0.00  0.00     0.083 C 
ATOM     19  C   UNL d   1     -15.603 -18.095  10.737  0.00  0.00     0.079 C 
ATOM     20  C   UNL d   1     -14.825 -18.813  11.808  0.00  0.00     0.127 C 
ENDROOT
BRANCH  12  21
ATOM     21  O   UNL d   1     -10.621 -11.308   7.162  0.00  0.00    -0.395 OA
ATOM     22  H   UNL d   1     -10.635 -11.001   6.241  0.00  0.00     0.210 HD
ENDBRANCH  12  21
TORSDOF 1
ENDMDL
MODEL 7
REMARK VINA RESULT:       0.0      4.966      7.489
REMARK  1 active torsions:
REMARK  status: ('A' for Active; 'I' for Inactive)
REMARK    1  A    between atoms: O_1  and  C_13 
ROOT
ATOM      1  O   UNL d   1      15.284   9.758  19.843  0.00  0.00    -0.298 OA
ATOM      2  C   UNL d   1      14.191   4.750  16.002  0.00  0.00    -0.005 C 
ATOM      3  C   UNL d   1      15.542   5.418  16.408  0.00  0.00    -0.002 C 
ATOM      4  C   UNL d   1      14.454   3.781  14.844  0.00  0.00     0.001 C 
ATOM      5  C   UNL d   1      15.457   2.670  15.210  0.00  0.00    -0.014 C 
ATOM      6  C   UNL d   1      15.366   6.476  17.560  0.00  0.00    -0.036 C 
ATOM      7  C   UNL d   1      14.269   7.502  17.131  0.00  0.00     0.001 C 
ATOM      8  C   UNL d   1      16.654   4.365  16.675  0.00  0.00     0.007 C 
ATOM      9  C   UNL d   1      16.802   3.333  15.541  0.00  0.00     0.012 C 
ATOM     10  C   UNL d   1      13.154   5.811  15.613  0.00  0.00     0.006 C 
ATOM     11  C   UNL d   1      13.283   3.015  14.232  0.00  0.00     0.008 C 
ATOM     12  C   UNL d   1      15.440   1.872  13.893  0.00  0.00     0.126 C 
ATOM     13  C   UNL d   1      12.948   6.838  16.720  0.00  0.00     0.006 C 
ATOM     14  C   UNL d   1      13.952   1.841  13.494  0.00  0.00     0.033 C 
ATOM     15  C   UNL d   1      16.708   7.246  17.782  0.00  0.00     0.017 C 
ATOM     16  C   UNL d   1      15.019   1.768  16.392  0.00  0.00     0.018 C 
ATOM     17  C   UNL d   1      14.985   5.779  18.893  0.00  0.00     0.016 C 
ATOM     18  C   UNL d   1      14.007   8.566  18.208  0.00  0.00     0.083 C 
ATOM     19  C   UNL d   1      16.574   8.733  18.110  0.00  0.00     0.079 C 
ATOM     20  C   UNL d   1      15.292   9.058  18.830  0.00  0.00     0.127 C 
ENDROOT
BRANCH  12  21
ATOM     21  O   UNL d   1      15.975   0.569  14.029  0.00  0.00    -0.395 OA
ATOM     22  H   UNL d   1      15.710   0.038  13.260  0.00  0.00     0.210 HD
ENDBRANCH  12  21
TORSDOF 1
ENDMDL
MODEL 8
REMARK VINA RESULT:       0.0      5.821      8.379
REMARK  1 active torsions:
REMARK  status: ('A' for Active; 'I' for Inactive)
REMARK    1  A    between atoms: O_1  and  C_13 
ROOT
ATOM      1  O   UNL d   1      20.040   8.455  11.628  0.00  0.00    -0.298 OA
ATOM      2  C   UNL d   1      15.692  10.778  15.719  0.00  0.00    -0.005 C 
ATOM      3  C   UNL d   1      17.224  10.548  15.917  0.00  0.00    -0.002 C 
ATOM      4  C   UNL d   1      15.063  11.076  17.084  0.00  0.00     0.001 C 
ATOM      5  C   UNL d   1      15.661  12.326  17.759  0.00  0.00    -0.014 C 
ATOM      6  C   UNL d   1      17.954  10.180  14.572  0.00  0.00    -0.036 C 
ATOM      7  C   UNL d   1      17.221   8.962  13.923  0.00  0.00     0.001 C 
ATOM      8  C   UNL d   1      17.889  11.711  16.705  0.00  0.00     0.007 C 
ATOM      9  C   UNL d   1      17.152  12.063  18.011  0.00  0.00     0.012 C 
ATOM     10  C   UNL d   1      15.039   9.557  15.061  0.00  0.00     0.006 C 
ATOM     11  C   UNL d   1      13.557  11.309  17.176  0.00  0.00     0.008 C 
ATOM     12  C   UNL d   1      14.791  12.367  19.029  0.00  0.00     0.126 C 
ATOM     13  C   UNL d   1      15.714   9.190  13.745  0.00  0.00     0.006 C 
ATOM     14  C   UNL d   1      13.374  12.035  18.521  0.00  0.00     0.033 C 
ATOM     15  C   UNL d   1      19.433   9.771  14.867  0.00  0.00     0.017 C 
ATOM     16  C   UNL d   1      15.496  13.638  16.950  0.00  0.00     0.018 C 
ATOM     17  C   UNL d   1      17.974  11.395  13.607  0.00  0.00     0.016 C 
ATOM     18  C   UNL d   1      17.849   8.543  12.585  0.00  0.00     0.083 C 
ATOM     19  C   UNL d   1      19.991   8.632  14.013  0.00  0.00     0.079 C 
ATOM     20  C   UNL d   1      19.358   8.564  12.648  0.00  0.00     0.127 C 
ENDROOT
BRANCH  12  21
ATOM     21  O   UNL d   1      14.833  13.618  19.687  0.00  0.00    -0.395 OA
ATOM     22  H   UNL d   1      14.398  14.283  19.128  0.00  0.00     0.210 HD
ENDBRANCH  12  21
TORSDOF 1
ENDMDL
MODEL 9
REMARK VINA RESULT:       0.0      5.250      6.916
REMARK  1 active torsions:
REMARK  status: ('A' for Active; 'I' for Inactive)
REMARK    1  A    between atoms: O_1  and  C_13 
ROOT
ATOM      1  O   UNL d   1      11.719  14.348  10.667  0.00  0.00    -0.298 OA
ATOM      2  C   UNL d   1      11.125   8.446  13.086  0.00  0.00    -0.005 C 
ATOM      3  C   UNL d   1      11.895   8.930  11.817  0.00  0.00    -0.002 C 
ATOM      4  C   UNL d   1      11.055   6.916  13.060  0.00  0.00     0.001 C 
ATOM      5  C   UNL d   1      12.446   6.254  13.051  0.00  0.00    -0.014 C 
ATOM      6  C   UNL d   1      11.973  10.500  11.725  0.00  0.00    -0.036 C 
ATOM      7  C   UNL d   1      10.526  11.079  11.832  0.00  0.00     0.001 C 
ATOM      8  C   UNL d   1      13.266   8.215  11.661  0.00  0.00     0.007 C 
ATOM      9  C   UNL d   1      13.169   6.682  11.766  0.00  0.00     0.012 C 
ATOM     10  C   UNL d   1       9.723   9.066  13.142  0.00  0.00     0.006 C 
ATOM     11  C   UNL d   1      10.320   6.184  14.181  0.00  0.00     0.008 C 
ATOM     12  C   UNL d   1      12.020   4.774  13.088  0.00  0.00     0.126 C 
ATOM     13  C   UNL d   1       9.770  10.588  13.074  0.00  0.00     0.006 C 
ATOM     14  C   UNL d   1      10.859   4.744  14.101  0.00  0.00     0.033 C 
ATOM     15  C   UNL d   1      12.575  10.921  10.346  0.00  0.00     0.017 C 
ATOM     16  C   UNL d   1      13.330   6.590  14.280  0.00  0.00     0.018 C 
ATOM     17  C   UNL d   1      12.885  11.072  12.843  0.00  0.00     0.016 C 
ATOM     18  C   UNL d   1      10.501  12.614  11.777  0.00  0.00     0.083 C 
ATOM     19  C   UNL d   1      11.970  12.172   9.710  0.00  0.00     0.079 C 
ATOM     20  C   UNL d   1      11.447  13.149  10.729  0.00  0.00     0.127 C 
ENDROOT
BRANCH  12  21
ATOM     21  O   UNL d   1      13.071   3.906  13.468  0.00  0.00    -0.395 OA
ATOM     22  H   UNL d   1      13.802   4.434  13.827  0.00  0.00     0.210 HD
ENDBRANCH  12  21
TORSDOF 1
ENDMDL
