MODEL 1
REMARK VINA RESULT:      -0.0      0.000      0.000
REMARK  2 active torsions:
REMARK  status: ('A' for Active; 'I' for Inactive)
REMARK    1  A    between atoms: O_11  and  C_12 
REMARK    2  A    between atoms: O_11  and  C_13 
ROOT
ATOM      1  O   UNL d   1     -16.405 -10.319 -10.033  0.00  0.00    -0.305 OA
ENDROOT
BRANCH   1   2
ATOM      2  C   UNL d   1     -15.844 -11.374  -9.337  0.00  0.00     0.113 A 
ATOM      3  C   UNL d   1     -15.140 -12.349 -10.028  0.00  0.00     0.065 A 
ATOM      4 BR   UNL d   1     -14.988 -12.173 -11.929  0.00  0.00    -0.046 Br
ATOM      5  C   UNL d   1     -14.576 -13.415  -9.327  0.00  0.00     0.050 A 
ATOM      6 BR   UNL d   1     -13.604 -14.767 -10.288  0.00  0.00    -0.048 Br
ATOM      7  C   UNL d   1     -14.722 -13.494  -7.942  0.00  0.00     0.048 A 
ATOM      8 BR   UNL d   1     -13.946 -14.966  -6.974  0.00  0.00    -0.048 Br
ATOM      9  C   UNL d   1     -15.432 -12.507  -7.259  0.00  0.00     0.050 A 
ATOM     10 BR   UNL d   1     -15.645 -12.596  -5.350  0.00  0.00    -0.048 Br
ATOM     11  C   UNL d   1     -15.997 -11.441  -7.960  0.00  0.00     0.065 A 
ATOM     12 BR   UNL d   1     -16.984 -10.048  -7.095  0.00  0.00    -0.046 Br
ENDBRANCH   1   2
BRANCH   1  13
ATOM     13  C   UNL d   1     -15.589  -9.608 -10.866  0.00  0.00     0.113 A 
ATOM     14  C   UNL d   1     -14.391  -9.080 -10.386  0.00  0.00     0.065 A 
ATOM     15 BR   UNL d   1     -13.961  -9.396  -8.547  0.00  0.00    -0.046 Br
ATOM     16  C   UNL d   1     -13.559  -8.352 -11.237  0.00  0.00     0.050 A 
ATOM     17 BR   UNL d   1     -11.913  -7.630 -10.553  0.00  0.00    -0.048 Br
ATOM     18  C   UNL d   1     -13.925  -8.151 -12.567  0.00  0.00     0.048 A 
ATOM     19 BR   UNL d   1     -12.779  -7.144 -13.740  0.00  0.00    -0.048 Br
ATOM     20  C   UNL d   1     -15.123  -8.679 -13.047  0.00  0.00     0.050 A 
ATOM     21 BR   UNL d   1     -15.647  -8.415 -14.879  0.00  0.00    -0.048 Br
ATOM     22  C   UNL d   1     -15.956  -9.407 -12.197  0.00  0.00     0.065 A 
ATOM     23 BR   UNL d   1     -17.615 -10.164 -12.781  0.00  0.00    -0.046 Br
ENDBRANCH   1  13
TORSDOF 2
ENDMDL
MODEL 2
REMARK VINA RESULT:      -0.0     25.240     27.165
REMARK  2 active torsions:
REMARK  status: ('A' for Active; 'I' for Inactive)
REMARK    1  A    between atoms: O_11  and  C_12 
REMARK    2  A    between atoms: O_11  and  C_13 
ROOT
ATOM      1  O   UNL d   1       0.413  -0.784   8.919  0.00  0.00    -0.305 OA
ENDROOT
BRANCH   1   2
ATOM      2  C   UNL d   1      -0.935  -1.024   8.726  0.00  0.00     0.113 A 
ATOM      3  C   UNL d   1      -1.467  -2.253   9.088  0.00  0.00     0.065 A 
ATOM      4 BR   UNL d   1      -0.287  -3.559   9.842  0.00  0.00    -0.046 Br
ATOM      5  C   UNL d   1      -2.827  -2.496   8.890  0.00  0.00     0.050 A 
ATOM      6 BR   UNL d   1      -3.561  -4.201   9.390  0.00  0.00    -0.048 Br
ATOM      7  C   UNL d   1      -3.639  -1.508   8.333  0.00  0.00     0.048 A 
ATOM      8 BR   UNL d   1      -5.514  -1.845   8.059  0.00  0.00    -0.048 Br
ATOM      9  C   UNL d   1      -3.091  -0.277   7.974  0.00  0.00     0.050 A 
ATOM     10 BR   UNL d   1      -4.192   1.099   7.205  0.00  0.00    -0.048 Br
ATOM     11  C   UNL d   1      -1.731  -0.033   8.171  0.00  0.00     0.065 A 
ATOM     12 BR   UNL d   1      -0.906   1.629   7.704  0.00  0.00    -0.046 Br
ENDBRANCH   1   2
BRANCH   1  13
ATOM     13  C   UNL d   1       0.921  -1.009  10.167  0.00  0.00     0.113 A 
ATOM     14  C   UNL d   1       0.323  -0.418  11.281  0.00  0.00     0.065 A 
ATOM     15 BR   UNL d   1      -1.207   0.693  10.975  0.00  0.00    -0.046 Br
ATOM     16  C   UNL d   1       0.843  -0.646  12.554  0.00  0.00     0.050 A 
ATOM     17 BR   UNL d   1       0.005   0.180  14.075  0.00  0.00    -0.048 Br
ATOM     18  C   UNL d   1       1.962  -1.463  12.715  0.00  0.00     0.048 A 
ATOM     19 BR   UNL d   1       2.682  -1.773  14.473  0.00  0.00    -0.048 Br
ATOM     20  C   UNL d   1       2.560  -2.053  11.602  0.00  0.00     0.050 A 
ATOM     21 BR   UNL d   1       4.103  -3.183  11.802  0.00  0.00    -0.048 Br
ATOM     22  C   UNL d   1       2.040  -1.825  10.328  0.00  0.00     0.065 A 
ATOM     23 BR   UNL d   1       2.803  -2.600   8.752  0.00  0.00    -0.046 Br
ENDBRANCH   1  13
TORSDOF 2
ENDMDL
MODEL 3
REMARK VINA RESULT:      -0.0     22.708     24.332
REMARK  2 active torsions:
REMARK  status: ('A' for Active; 'I' for Inactive)
REMARK    1  A    between atoms: O_11  and  C_12 
REMARK    2  A    between atoms: O_11  and  C_13 
ROOT
ATOM      1  O   UNL d   1      -1.745   1.806   4.902  0.00  0.00    -0.305 OA
ENDROOT
BRANCH   1   2
ATOM      2  C   UNL d   1      -2.024   1.083   6.047  0.00  0.00     0.113 A 
ATOM      3  C   UNL d   1      -1.743  -0.274   6.082  0.00  0.00     0.065 A 
ATOM      4 BR   UNL d   1      -0.976  -1.075   4.520  0.00  0.00    -0.046 Br
ATOM      5  C   UNL d   1      -2.027  -1.004   7.236  0.00  0.00     0.050 A 
ATOM      6 BR   UNL d   1      -1.639  -2.887   7.280  0.00  0.00    -0.048 Br
ATOM      7  C   UNL d   1      -2.589  -0.368   8.343  0.00  0.00     0.048 A 
ATOM      8 BR   UNL d   1      -2.983  -1.376   9.935  0.00  0.00    -0.048 Br
ATOM      9  C   UNL d   1      -2.867   0.997   8.295  0.00  0.00     0.050 A 
ATOM     10 BR   UNL d   1      -3.641   1.894   9.810  0.00  0.00    -0.048 Br
ATOM     11  C   UNL d   1      -2.584   1.728   7.140  0.00  0.00     0.065 A 
ATOM     12 BR   UNL d   1      -2.935   3.604   6.997  0.00  0.00    -0.046 Br
ENDBRANCH   1   2
BRANCH   1  13
ATOM     13  C   UNL d   1      -0.480   1.719   4.394  0.00  0.00     0.113 A 
ATOM     14  C   UNL d   1       0.620   1.971   5.213  0.00  0.00     0.065 A 
ATOM     15 BR   UNL d   1       0.274   2.433   7.039  0.00  0.00    -0.046 Br
ATOM     16  C   UNL d   1       1.911   1.884   4.692  0.00  0.00     0.050 A 
ATOM     17 BR   UNL d   1       3.414   2.238   5.839  0.00  0.00    -0.048 Br
ATOM     18  C   UNL d   1       2.103   1.546   3.353  0.00  0.00     0.048 A 
ATOM     19 BR   UNL d   1       3.885   1.429   2.635  0.00  0.00    -0.048 Br
ATOM     20  C   UNL d   1       1.003   1.294   2.534  0.00  0.00     0.050 A 
ATOM     21 BR   UNL d   1       1.244   0.826   0.685  0.00  0.00    -0.048 Br
ATOM     22  C   UNL d   1      -0.289   1.381   3.053  0.00  0.00     0.065 A 
ATOM     23 BR   UNL d   1      -1.849   1.050   1.994  0.00  0.00    -0.046 Br
ENDBRANCH   1  13
TORSDOF 2
ENDMDL
MODEL 4
REMARK VINA RESULT:      -0.0     13.833     16.240
REMARK  2 active torsions:
REMARK  status: ('A' for Active; 'I' for Inactive)
REMARK    1  A    between atoms: O_11  and  C_12 
REMARK    2  A    between atoms: O_11  and  C_13 
ROOT
ATOM      1  O   UNL d   1       0.396  -8.871  -4.856  0.00  0.00    -0.305 OA
ENDROOT
BRANCH   1   2
ATOM      2  C   UNL d   1       0.696  -8.782  -6.203  0.00  0.00     0.113 A 
ATOM      3  C   UNL d   1       0.508  -9.888  -7.018  0.00  0.00     0.065 A 
ATOM      4 BR   UNL d   1      -0.163 -11.493  -6.217  0.00  0.00    -0.046 Br
ATOM      5  C   UNL d   1       0.814  -9.799  -8.377  0.00  0.00     0.050 A 
ATOM      6 BR   UNL d   1       0.555 -11.335  -9.503  0.00  0.00    -0.048 Br
ATOM      7  C   UNL d   1       1.303  -8.604  -8.905  0.00  0.00     0.048 A 
ATOM      8 BR   UNL d   1       1.726  -8.482 -10.779  0.00  0.00    -0.048 Br
ATOM      9  C   UNL d   1       1.487  -7.499  -8.074  0.00  0.00     0.050 A 
ATOM     10 BR   UNL d   1       2.160  -5.842  -8.782  0.00  0.00    -0.048 Br
ATOM     11  C   UNL d   1       1.182  -7.588  -6.715  0.00  0.00     0.065 A 
ATOM     12 BR   UNL d   1       1.407  -6.116  -5.512  0.00  0.00    -0.046 Br
ENDBRANCH   1   2
BRANCH   1  13
ATOM     13  C   UNL d   1      -0.847  -9.324  -4.516  0.00  0.00     0.113 A 
ATOM     14  C   UNL d   1      -1.982  -8.725  -5.062  0.00  0.00     0.065 A 
ATOM     15 BR   UNL d   1      -1.713  -7.274  -6.283  0.00  0.00    -0.046 Br
ATOM     16  C   UNL d   1      -3.251  -9.186  -4.712  0.00  0.00     0.050 A 
ATOM     17 BR   UNL d   1      -4.802  -8.345  -5.475  0.00  0.00    -0.048 Br
ATOM     18  C   UNL d   1      -3.385 -10.246  -3.815  0.00  0.00     0.048 A 
ATOM     19 BR   UNL d   1      -5.137 -10.880  -3.330  0.00  0.00    -0.048 Br
ATOM     20  C   UNL d   1      -2.250 -10.844  -3.269  0.00  0.00     0.050 A 
ATOM     21 BR   UNL d   1      -2.413 -12.307  -2.031  0.00  0.00    -0.048 Br
ATOM     22  C   UNL d   1      -0.981 -10.383  -3.618  0.00  0.00     0.065 A 
ATOM     23 BR   UNL d   1       0.624 -11.153  -2.912  0.00  0.00    -0.046 Br
ENDBRANCH   1  13
TORSDOF 2
ENDMDL
MODEL 5
REMARK VINA RESULT:      -0.0      4.196      6.788
REMARK  2 active torsions:
REMARK  status: ('A' for Active; 'I' for Inactive)
REMARK    1  A    between atoms: O_11  and  C_12 
REMARK    2  A    between atoms: O_11  and  C_13 
ROOT
ATOM      1  O   UNL d   1     -15.066 -13.307 -11.746  0.00  0.00    -0.305 OA
ENDROOT
BRANCH   1   2
ATOM      2  C   UNL d   1     -16.071 -13.110 -12.674  0.00  0.00     0.113 A 
ATOM      3  C   UNL d   1     -15.842 -12.280 -13.761  0.00  0.00     0.065 A 
ATOM      4 BR   UNL d   1     -14.125 -11.445 -13.911  0.00  0.00    -0.046 Br
ATOM      5  C   UNL d   1     -16.858 -12.079 -14.697  0.00  0.00     0.050 A 
ATOM      6 BR   UNL d   1     -16.539 -10.925 -16.201  0.00  0.00    -0.048 Br
ATOM      7  C   UNL d   1     -18.091 -12.711 -14.534  0.00  0.00     0.048 A 
ATOM      8 BR   UNL d   1     -19.493 -12.432 -15.823  0.00  0.00    -0.048 Br
ATOM      9  C   UNL d   1     -18.308 -13.543 -13.436  0.00  0.00     0.050 A 
ATOM     10 BR   UNL d   1     -20.000 -14.424 -13.194  0.00  0.00    -0.048 Br
ATOM     11  C   UNL d   1     -17.292 -13.744 -12.500  0.00  0.00     0.065 A 
ATOM     12 BR   UNL d   1     -17.513 -14.871 -10.969  0.00  0.00    -0.046 Br
ENDBRANCH   1   2
BRANCH   1  13
ATOM     13  C   UNL d   1     -13.845 -13.704 -12.213  0.00  0.00     0.113 A 
ATOM     14  C   UNL d   1     -13.745 -14.822 -13.042  0.00  0.00     0.065 A 
ATOM     15 BR   UNL d   1     -15.366 -15.744 -13.479  0.00  0.00    -0.046 Br
ATOM     16  C   UNL d   1     -12.498 -15.229 -13.516  0.00  0.00     0.050 A 
ATOM     17 BR   UNL d   1     -12.384 -16.774 -14.655  0.00  0.00    -0.048 Br
ATOM     18  C   UNL d   1     -11.351 -14.520 -13.162  0.00  0.00     0.048 A 
ATOM     19 BR   UNL d   1      -9.631 -15.084 -13.815  0.00  0.00    -0.048 Br
ATOM     20  C   UNL d   1     -11.451 -13.403 -12.334  0.00  0.00     0.050 A 
ATOM     21 BR   UNL d   1      -9.882 -12.410 -11.834  0.00  0.00    -0.048 Br
ATOM     22  C   UNL d   1     -12.697 -12.995 -11.858  0.00  0.00     0.065 A 
ATOM     23 BR   UNL d   1     -12.916 -11.472 -10.718  0.00  0.00    -0.046 Br
ENDBRANCH   1  13
TORSDOF 2
ENDMDL
MODEL 6
REMARK VINA RESULT:      -0.0     32.975     34.641
REMARK  2 active torsions:
REMARK  status: ('A' for Active; 'I' for Inactive)
REMARK    1  A    between atoms: O_11  and  C_12 
REMARK    2  A    between atoms: O_11  and  C_13 
ROOT
ATOM      1  O   UNL d   1      14.381   1.994   4.623  0.00  0.00    -0.305 OA
ENDROOT
BRANCH   1   2
ATOM      2  C   UNL d   1      14.066   0.678   4.907  0.00  0.00     0.113 A 
ATOM      3  C   UNL d   1      13.736   0.320   6.205  0.00  0.00     0.065 A 
ATOM      4 BR   UNL d   1      13.739   1.689   7.544  0.00  0.00    -0.046 Br
ATOM      5  C   UNL d   1      13.420  -1.009   6.491  0.00  0.00     0.050 A 
ATOM      6 BR   UNL d   1      12.967  -1.502   8.294  0.00  0.00    -0.048 Br
ATOM      7  C   UNL d   1      13.438  -1.964   5.476  0.00  0.00     0.048 A 
ATOM      8 BR   UNL d   1      13.005  -3.798   5.871  0.00  0.00    -0.048 Br
ATOM      9  C   UNL d   1      13.771  -1.591   4.174  0.00  0.00     0.050 A 
ATOM     10 BR   UNL d   1      13.801  -2.893   2.759  0.00  0.00    -0.048 Br
ATOM     11  C   UNL d   1      14.088  -0.263   3.887  0.00  0.00     0.065 A 
ATOM     12 BR   UNL d   1      14.554   0.327   2.127  0.00  0.00    -0.046 Br
ENDBRANCH   1   2
BRANCH   1  13
ATOM     13  C   UNL d   1      13.491   2.953   5.014  0.00  0.00     0.113 A 
ATOM     14  C   UNL d   1      12.150   2.854   4.643  0.00  0.00     0.065 A 
ATOM     15 BR   UNL d   1      11.637   1.341   3.586  0.00  0.00    -0.046 Br
ATOM     16  C   UNL d   1      11.242   3.836   5.039  0.00  0.00     0.050 A 
ATOM     17 BR   UNL d   1       9.399   3.680   4.514  0.00  0.00    -0.048 Br
ATOM     18  C   UNL d   1      11.674   4.917   5.806  0.00  0.00     0.048 A 
ATOM     19 BR   UNL d   1      10.421   6.273   6.350  0.00  0.00    -0.048 Br
ATOM     20  C   UNL d   1      13.015   5.017   6.177  0.00  0.00     0.050 A 
ATOM     21 BR   UNL d   1      13.632   6.500   7.234  0.00  0.00    -0.048 Br
ATOM     22  C   UNL d   1      13.923   4.036   5.780  0.00  0.00     0.065 A 
ATOM     23 BR   UNL d   1      15.779   4.101   6.249  0.00  0.00    -0.046 Br
ENDBRANCH   1  13
TORSDOF 2
ENDMDL
MODEL 7
REMARK VINA RESULT:      -0.0     25.059     27.192
REMARK  2 active torsions:
REMARK  status: ('A' for Active; 'I' for Inactive)
REMARK    1  A    between atoms: O_11  and  C_12 
REMARK    2  A    between atoms: O_11  and  C_13 
ROOT
ATOM      1  O   UNL d   1       1.983  -4.251   9.445  0.00  0.00    -0.305 OA
ENDROOT
BRANCH   1   2
ATOM      2  C   UNL d   1       1.874  -5.188   8.434  0.00  0.00     0.113 A 
ATOM      3  C   UNL d   1       2.752  -6.261   8.401  0.00  0.00     0.065 A 
ATOM      4 BR   UNL d   1       4.081  -6.379   9.775  0.00  0.00    -0.046 Br
ATOM      5  C   UNL d   1       2.643  -7.205   7.379  0.00  0.00     0.050 A 
ATOM      6 BR   UNL d   1       3.865  -8.689   7.334  0.00  0.00    -0.048 Br
ATOM      7  C   UNL d   1       1.657  -7.066   6.403  0.00  0.00     0.048 A 
ATOM      8 BR   UNL d   1       1.509  -8.367   4.992  0.00  0.00    -0.048 Br
ATOM      9  C   UNL d   1       0.781  -5.983   6.448  0.00  0.00     0.050 A 
ATOM     10 BR   UNL d   1      -0.586  -5.772   5.112  0.00  0.00    -0.048 Br
ATOM     11  C   UNL d   1       0.889  -5.038   7.469  0.00  0.00     0.065 A 
ATOM     12 BR   UNL d   1      -0.277  -3.525   7.599  0.00  0.00    -0.046 Br
ENDBRANCH   1   2
BRANCH   1  13
ATOM     13  C   UNL d   1       1.992  -4.710  10.731  0.00  0.00     0.113 A 
ATOM     14  C   UNL d   1       0.975  -5.553  11.179  0.00  0.00     0.065 A 
ATOM     15 BR   UNL d   1      -0.398  -6.021   9.928  0.00  0.00    -0.046 Br
ATOM     16  C   UNL d   1       0.983  -6.019  12.494  0.00  0.00     0.050 A 
ATOM     17 BR   UNL d   1      -0.431  -7.178  13.091  0.00  0.00    -0.048 Br
ATOM     18  C   UNL d   1       2.007  -5.641  13.361  0.00  0.00     0.048 A 
ATOM     19 BR   UNL d   1       2.016  -6.282  15.177  0.00  0.00    -0.048 Br
ATOM     20  C   UNL d   1       3.024  -4.798  12.914  0.00  0.00     0.050 A 
ATOM     21 BR   UNL d   1       4.446  -4.266  14.094  0.00  0.00    -0.048 Br
ATOM     22  C   UNL d   1       3.016  -4.332  11.600  0.00  0.00     0.065 A 
ATOM     23 BR   UNL d   1       4.376  -3.173  10.911  0.00  0.00    -0.046 Br
ENDBRANCH   1  13
TORSDOF 2
ENDMDL
MODEL 8
REMARK VINA RESULT:       0.0     21.734     24.442
REMARK  2 active torsions:
REMARK  status: ('A' for Active; 'I' for Inactive)
REMARK    1  A    between atoms: O_11  and  C_12 
REMARK    2  A    between atoms: O_11  and  C_13 
ROOT
ATOM      1  O   UNL d   1       3.295   2.799  -2.222  0.00  0.00    -0.305 OA
ENDROOT
BRANCH   1   2
ATOM      2  C   UNL d   1       3.252   1.553  -2.820  0.00  0.00     0.113 A 
ATOM      3  C   UNL d   1       4.359   0.721  -2.742  0.00  0.00     0.065 A 
ATOM      4 BR   UNL d   1       5.899   1.357  -1.798  0.00  0.00    -0.046 Br
ATOM      5  C   UNL d   1       4.316  -0.535  -3.348  0.00  0.00     0.050 A 
ATOM      6 BR   UNL d   1       5.853  -1.686  -3.241  0.00  0.00    -0.048 Br
ATOM      7  C   UNL d   1       3.168  -0.944  -4.025  0.00  0.00     0.048 A 
ATOM      8 BR   UNL d   1       3.110  -2.676  -4.864  0.00  0.00    -0.048 Br
ATOM      9  C   UNL d   1       2.062  -0.098  -4.097  0.00  0.00     0.050 A 
ATOM     10 BR   UNL d   1       0.468  -0.642  -5.025  0.00  0.00    -0.048 Br
ATOM     11  C   UNL d   1       2.104   1.159  -3.491  0.00  0.00     0.065 A 
ATOM     12 BR   UNL d   1       0.628   2.377  -3.544  0.00  0.00    -0.046 Br
ENDBRANCH   1   2
BRANCH   1  13
ATOM     13  C   UNL d   1       3.657   2.854  -0.906  0.00  0.00     0.113 A 
ATOM     14  C   UNL d   1       2.993   2.065   0.034  0.00  0.00     0.065 A 
ATOM     15 BR   UNL d   1       1.587   0.931  -0.601  0.00  0.00    -0.046 Br
ATOM     16  C   UNL d   1       3.361   2.123   1.378  0.00  0.00     0.050 A 
ATOM     17 BR   UNL d   1       2.431   1.029   2.657  0.00  0.00    -0.048 Br
ATOM     18  C   UNL d   1       4.391   2.971   1.783  0.00  0.00     0.048 A 
ATOM     19 BR   UNL d   1       4.896   3.054   3.639  0.00  0.00    -0.048 Br
ATOM     20  C   UNL d   1       5.055   3.760   0.844  0.00  0.00     0.050 A 
ATOM     21 BR   UNL d   1       6.479   4.935   1.382  0.00  0.00    -0.048 Br
ATOM     22  C   UNL d   1       4.687   3.702  -0.500  0.00  0.00     0.065 A 
ATOM     23 BR   UNL d   1       5.550   4.752  -1.849  0.00  0.00    -0.046 Br
ENDBRANCH   1  13
TORSDOF 2
ENDMDL
MODEL 9
REMARK VINA RESULT:       0.0     14.552     17.560
REMARK  2 active torsions:
REMARK  status: ('A' for Active; 'I' for Inactive)
REMARK    1  A    between atoms: O_11  and  C_12 
REMARK    2  A    between atoms: O_11  and  C_13 
ROOT
ATOM      1  O   UNL d   1      -5.785 -12.163   4.497  0.00  0.00    -0.305 OA
ENDROOT
BRANCH   1   2
ATOM      2  C   UNL d   1      -5.329 -11.392   3.444  0.00  0.00     0.113 A 
ATOM      3  C   UNL d   1      -6.189 -11.086   2.400  0.00  0.00     0.065 A 
ATOM      4 BR   UNL d   1      -7.980 -11.760   2.484  0.00  0.00    -0.046 Br
ATOM      5  C   UNL d   1      -5.728 -10.311   1.336  0.00  0.00     0.050 A 
ATOM      6 BR   UNL d   1      -6.923  -9.892  -0.111  0.00  0.00    -0.048 Br
ATOM      7  C   UNL d   1      -4.412  -9.851   1.327  0.00  0.00     0.048 A 
ATOM      8 BR   UNL d   1      -3.776  -8.783  -0.143  0.00  0.00    -0.048 Br
ATOM      9  C   UNL d   1      -3.557 -10.165   2.383  0.00  0.00     0.050 A 
ATOM     10 BR   UNL d   1      -1.738  -9.540   2.390  0.00  0.00    -0.048 Br
ATOM     11  C   UNL d   1      -4.017 -10.941   3.447  0.00  0.00     0.065 A 
ATOM     12 BR   UNL d   1      -2.905 -11.414   4.932  0.00  0.00    -0.046 Br
ENDBRANCH   1   2
BRANCH   1  13
ATOM     13  C   UNL d   1      -6.931 -11.761   5.123  0.00  0.00     0.113 A 
ATOM     14  C   UNL d   1      -7.044 -10.455   5.602  0.00  0.00     0.065 A 
ATOM     15 BR   UNL d   1      -5.547  -9.288   5.344  0.00  0.00    -0.046 Br
ATOM     16  C   UNL d   1      -8.213 -10.046   6.243  0.00  0.00     0.050 A 
ATOM     17 BR   UNL d   1      -8.346  -8.244   6.898  0.00  0.00    -0.048 Br
ATOM     18  C   UNL d   1      -9.270 -10.942   6.405  0.00  0.00     0.048 A 
ATOM     19 BR   UNL d   1     -10.882 -10.378   7.292  0.00  0.00    -0.048 Br
ATOM     20  C   UNL d   1      -9.157 -12.247   5.926  0.00  0.00     0.050 A 
ATOM     21 BR   UNL d   1     -10.602 -13.497   6.139  0.00  0.00    -0.048 Br
ATOM     22  C   UNL d   1      -7.988 -12.657   5.286  0.00  0.00     0.065 A 
ATOM     23 BR   UNL d   1      -7.757 -14.429   4.600  0.00  0.00    -0.046 Br
ENDBRANCH   1  13
TORSDOF 2
ENDMDL
