MODEL 1
REMARK VINA RESULT:      -0.0      0.000      0.000
REMARK  6 active torsions:
REMARK  status: ('A' for Active; 'I' for Inactive)
REMARK    1  A    between atoms: N_8  and  C_18 
REMARK    2  A    between atoms: N_9  and  N_11 
REMARK       I    between atoms: N_9  and  C_22 
REMARK    3  A    between atoms: N_10  and  C_25 
REMARK       I    between atoms: N_11  and  C_27 
REMARK    4  A    between atoms: N_12  and  C_26 
REMARK       I    between atoms: N_12  and  C_27 
REMARK    5  A    between atoms: C_19  and  C_22 
REMARK    6  A    between atoms: C_28  and  C_33 
ROOT
ATOM      1  O   UNL d   1      -6.355  -5.438   8.607  0.00  0.00    -0.267 OA
ATOM      2  N   UNL d   1      -7.163  -4.298  10.462  0.00  0.00    -0.263 N 
ATOM      3  C   UNL d   1      -7.274  -4.922   9.236  0.00  0.00     0.260 C 
ATOM      4  H   UNL d   1      -7.940  -3.880  10.963  0.00  0.00     0.190 HD
ENDROOT
BRANCH   2   5
ATOM      5  N   UNL d   1      -5.931  -4.232  11.064  0.00  0.00    -0.248 N 
ATOM      6  C   UNL d   1      -5.201  -3.046  10.990  0.00  0.00     0.339 C 
ATOM      7  O   UNL d   1      -5.605  -2.041  10.408  0.00  0.00    -0.245 OA
ATOM      8  N   UNL d   1      -3.984  -3.186  11.663  0.00  0.00    -0.308 N 
ATOM      9  H   UNL d   1      -3.805  -4.089  12.094  0.00  0.00     0.170 HD
ATOM     10  H   UNL d   1      -5.607  -5.061  11.547  0.00  0.00     0.192 HD
BRANCH   8  11
ATOM     11  C   UNL d   1      -2.962  -2.221  11.821  0.00  0.00     0.037 A 
ATOM     12  C   UNL d   1      -2.018  -2.032  10.813  0.00  0.00     0.045 A 
ATOM     13  C   UNL d   1      -1.011  -1.080  10.970  0.00  0.00     0.050 A 
ATOM     14  C   UNL d   1      -0.948  -0.317  12.135  0.00  0.00     0.016 A 
ATOM     15  C   UNL d   1      -1.892  -0.505  13.144  0.00  0.00     0.003 A 
ATOM     16  C   UNL d   1      -2.900  -1.457  12.987  0.00  0.00     0.029 A 
BRANCH  13  17
ATOM     17  C   UNL d   1      -0.001  -0.879   9.891  0.00  0.00     0.417 C 
ATOM     18  F   UNL d   1      -0.469  -1.168   8.640  0.00  0.00    -0.166 F 
ATOM     19  F   UNL d   1       1.118  -1.650  10.038  0.00  0.00    -0.166 F 
ATOM     20  F   UNL d   1       0.450   0.408   9.825  0.00  0.00    -0.166 F 
ENDBRANCH  13  17
ENDBRANCH   8  11
ENDBRANCH   2   5
BRANCH   3  21
ATOM     21  C   UNL d   1      -8.674  -4.900   8.740  0.00  0.00     0.078 C 
ATOM     22  C   UNL d   1      -9.102  -3.890   7.968  0.00  0.00    -0.071 C 
ATOM     23  C   UNL d   1     -10.504  -3.806   7.433  0.00  0.00     0.054 C 
ATOM     24  C   UNL d   1      -8.230  -2.731   7.577  0.00  0.00     0.054 C 
ATOM     25  C   UNL d   1     -11.147  -2.473   7.820  0.00  0.00     0.127 C 
ATOM     26  N   UNL d   1     -10.273  -1.345   7.453  0.00  0.00    -0.380 N 
ATOM     27  C   UNL d   1      -8.891  -1.402   7.955  0.00  0.00     0.127 C 
BRANCH  26  28
ATOM     28  C   UNL d   1     -10.879  -0.101   7.243  0.00  0.00     0.030 A 
ATOM     29  C   UNL d   1     -10.102   1.058   7.218  0.00  0.00     0.032 A 
ATOM     30  C   UNL d   1     -10.705   2.297   7.008  0.00  0.00     0.038 A 
ATOM     31  C   UNL d   1     -12.087   2.378   6.826  0.00  0.00     0.103 A 
ATOM     32  C   UNL d   1     -12.863   1.221   6.852  0.00  0.00     0.038 A 
ATOM     33  C   UNL d   1     -12.259  -0.019   7.061  0.00  0.00     0.032 A 
BRANCH  31  34
ATOM     34  N   UNL d   1     -12.702   3.641   6.614  0.00  0.00    -0.116 N 
ATOM     35  O   UNL d   1     -11.986   4.671   6.595  0.00  0.00    -0.532 OA
ATOM     36  O   UNL d   1     -13.946   3.692   6.453  0.00  0.00    -0.532 OA
ENDBRANCH  31  34
ENDBRANCH  26  28
ENDBRANCH   3  21
TORSDOF 6
ENDMDL
MODEL 2
REMARK VINA RESULT:       0.0      8.856     11.415
REMARK  6 active torsions:
REMARK  status: ('A' for Active; 'I' for Inactive)
REMARK    1  A    between atoms: N_8  and  C_18 
REMARK    2  A    between atoms: N_9  and  N_11 
REMARK       I    between atoms: N_9  and  C_22 
REMARK    3  A    between atoms: N_10  and  C_25 
REMARK       I    between atoms: N_11  and  C_27 
REMARK    4  A    between atoms: N_12  and  C_26 
REMARK       I    between atoms: N_12  and  C_27 
REMARK    5  A    between atoms: C_19  and  C_22 
REMARK    6  A    between atoms: C_28  and  C_33 
ROOT
ATOM      1  O   UNL d   1       1.724  -2.258   3.017  0.00  0.00    -0.267 OA
ATOM      2  N   UNL d   1      -0.426  -1.763   3.740  0.00  0.00    -0.263 N 
ATOM      3  C   UNL d   1       0.911  -1.494   3.527  0.00  0.00     0.260 C 
ATOM      4  H   UNL d   1      -1.081  -1.113   4.162  0.00  0.00     0.190 HD
ENDROOT
BRANCH   2   5
ATOM      5  N   UNL d   1      -0.926  -2.984   3.360  0.00  0.00    -0.248 N 
ATOM      6  C   UNL d   1      -1.119  -3.971   4.326  0.00  0.00     0.339 C 
ATOM      7  O   UNL d   1      -0.864  -3.807   5.517  0.00  0.00    -0.245 OA
ATOM      8  N   UNL d   1      -1.633  -5.129   3.737  0.00  0.00    -0.308 N 
ATOM      9  H   UNL d   1      -1.788  -5.097   2.732  0.00  0.00     0.170 HD
ATOM     10  H   UNL d   1      -1.140  -3.111   2.378  0.00  0.00     0.192 HD
BRANCH   8  11
ATOM     11  C   UNL d   1      -1.967  -6.351   4.366  0.00  0.00     0.037 A 
ATOM     12  C   UNL d   1      -0.977  -7.301   4.615  0.00  0.00     0.045 A 
ATOM     13  C   UNL d   1      -1.308  -8.505   5.237  0.00  0.00     0.050 A 
ATOM     14  C   UNL d   1      -2.627  -8.759   5.609  0.00  0.00     0.016 A 
ATOM     15  C   UNL d   1      -3.617  -7.808   5.361  0.00  0.00     0.003 A 
ATOM     16  C   UNL d   1      -3.287  -6.604   4.740  0.00  0.00     0.029 A 
BRANCH  13  17
ATOM     17  C   UNL d   1      -0.249  -9.522   5.502  0.00  0.00     0.417 C 
ATOM     18  F   UNL d   1       0.996  -8.986   5.669  0.00  0.00    -0.166 F 
ATOM     19  F   UNL d   1      -0.108 -10.440   4.499  0.00  0.00    -0.166 F 
ATOM     20  F   UNL d   1      -0.490 -10.250   6.631  0.00  0.00    -0.166 F 
ENDBRANCH  13  17
ENDBRANCH   8  11
ENDBRANCH   2   5
BRANCH   3  21
ATOM     21  C   UNL d   1       1.272  -0.133   3.997  0.00  0.00     0.078 C 
ATOM     22  C   UNL d   1       1.706   0.057   5.251  0.00  0.00    -0.071 C 
ATOM     23  C   UNL d   1       2.088   1.407   5.792  0.00  0.00     0.054 C 
ATOM     24  C   UNL d   1       1.836  -1.058   6.251  0.00  0.00     0.054 C 
ATOM     25  C   UNL d   1       1.307   1.714   7.070  0.00  0.00     0.127 C 
ATOM     26  N   UNL d   1       1.422   0.604   8.033  0.00  0.00    -0.380 N 
ATOM     27  C   UNL d   1       1.063  -0.732   7.532  0.00  0.00     0.127 C 
BRANCH  26  28
ATOM     28  C   UNL d   1       1.240   0.904   9.387  0.00  0.00     0.030 A 
ATOM     29  C   UNL d   1       1.285   2.229   9.820  0.00  0.00     0.032 A 
ATOM     30  C   UNL d   1       1.103   2.529  11.170  0.00  0.00     0.038 A 
ATOM     31  C   UNL d   1       0.876   1.502  12.088  0.00  0.00     0.103 A 
ATOM     32  C   UNL d   1       0.831   0.177  11.655  0.00  0.00     0.038 A 
ATOM     33  C   UNL d   1       1.013  -0.122  10.305  0.00  0.00     0.032 A 
BRANCH  31  34
ATOM     34  N   UNL d   1       0.692   1.806  13.462  0.00  0.00    -0.116 N 
ATOM     35  O   UNL d   1       0.722   3.006  13.829  0.00  0.00    -0.532 OA
ATOM     36  O   UNL d   1       0.505   0.867  14.273  0.00  0.00    -0.532 OA
ENDBRANCH  31  34
ENDBRANCH  26  28
ENDBRANCH   3  21
TORSDOF 6
ENDMDL
MODEL 3
REMARK VINA RESULT:       0.0     17.070     19.963
REMARK  6 active torsions:
REMARK  status: ('A' for Active; 'I' for Inactive)
REMARK    1  A    between atoms: N_8  and  C_18 
REMARK    2  A    between atoms: N_9  and  N_11 
REMARK       I    between atoms: N_9  and  C_22 
REMARK    3  A    between atoms: N_10  and  C_25 
REMARK       I    between atoms: N_11  and  C_27 
REMARK    4  A    between atoms: N_12  and  C_26 
REMARK       I    between atoms: N_12  and  C_27 
REMARK    5  A    between atoms: C_19  and  C_22 
REMARK    6  A    between atoms: C_28  and  C_33 
ROOT
ATOM      1  O   UNL d   1       2.082   9.939  -4.373  0.00  0.00    -0.267 OA
ATOM      2  N   UNL d   1       1.022   8.777  -2.665  0.00  0.00    -0.263 N 
ATOM      3  C   UNL d   1       2.089   9.098  -3.480  0.00  0.00     0.260 C 
ATOM      4  H   UNL d   1       1.054   8.078  -1.930  0.00  0.00     0.190 HD
ENDROOT
BRANCH   2   5
ATOM      5  N   UNL d   1      -0.169   9.437  -2.840  0.00  0.00    -0.248 N 
ATOM      6  C   UNL d   1      -1.199   8.809  -3.540  0.00  0.00     0.339 C 
ATOM      7  O   UNL d   1      -1.099   7.681  -4.016  0.00  0.00    -0.245 OA
ATOM      8  N   UNL d   1      -2.318   9.644  -3.604  0.00  0.00    -0.308 N 
ATOM      9  H   UNL d   1      -2.233  10.552  -3.154  0.00  0.00     0.170 HD
ATOM     10  H   UNL d   1      -0.247  10.365  -2.440  0.00  0.00     0.192 HD
BRANCH   8  11
ATOM     11  C   UNL d   1      -3.563   9.383  -4.222  0.00  0.00     0.037 A 
ATOM     12  C   UNL d   1      -3.716   9.578  -5.594  0.00  0.00     0.045 A 
ATOM     13  C   UNL d   1      -4.944   9.320  -6.202  0.00  0.00     0.050 A 
ATOM     14  C   UNL d   1      -6.019   8.868  -5.438  0.00  0.00     0.016 A 
ATOM     15  C   UNL d   1      -5.866   8.672  -4.065  0.00  0.00     0.003 A 
ATOM     16  C   UNL d   1      -4.638   8.930  -3.457  0.00  0.00     0.029 A 
BRANCH  13  17
ATOM     17  C   UNL d   1      -5.108   9.529  -7.670  0.00  0.00     0.417 C 
ATOM     18  F   UNL d   1      -3.952   9.361  -8.379  0.00  0.00    -0.166 F 
ATOM     19  F   UNL d   1      -5.548  10.780  -7.998  0.00  0.00    -0.166 F 
ATOM     20  F   UNL d   1      -6.008   8.668  -8.226  0.00  0.00    -0.166 F 
ENDBRANCH  13  17
ENDBRANCH   8  11
ENDBRANCH   2   5
BRANCH   3  21
ATOM     21  C   UNL d   1       3.288   8.288  -3.147  0.00  0.00     0.078 C 
ATOM     22  C   UNL d   1       3.508   7.120  -3.767  0.00  0.00    -0.071 C 
ATOM     23  C   UNL d   1       4.701   6.251  -3.479  0.00  0.00     0.054 C 
ATOM     24  C   UNL d   1       2.574   6.550  -4.797  0.00  0.00     0.054 C 
ATOM     25  C   UNL d   1       4.257   4.836  -3.103  0.00  0.00     0.127 C 
ATOM     26  N   UNL d   1       3.323   4.298  -4.108  0.00  0.00    -0.380 N 
ATOM     27  C   UNL d   1       2.150   5.128  -4.418  0.00  0.00     0.127 C 
BRANCH  26  28
ATOM     28  C   UNL d   1       3.232   2.906  -4.222  0.00  0.00     0.030 A 
ATOM     29  C   UNL d   1       2.158   2.331  -4.902  0.00  0.00     0.032 A 
ATOM     30  C   UNL d   1       2.067   0.944  -5.016  0.00  0.00     0.038 A 
ATOM     31  C   UNL d   1       3.050   0.131  -4.449  0.00  0.00     0.103 A 
ATOM     32  C   UNL d   1       4.122   0.706  -3.769  0.00  0.00     0.038 A 
ATOM     33  C   UNL d   1       4.214   2.093  -3.656  0.00  0.00     0.032 A 
BRANCH  31  34
ATOM     34  N   UNL d   1       2.956  -1.281  -4.564  0.00  0.00    -0.116 N 
ATOM     35  O   UNL d   1       3.850  -1.993  -4.048  0.00  0.00    -0.532 OA
ATOM     36  O   UNL d   1       1.982  -1.778  -5.180  0.00  0.00    -0.532 OA
ENDBRANCH  31  34
ENDBRANCH  26  28
ENDBRANCH   3  21
TORSDOF 6
ENDMDL
MODEL 4
REMARK VINA RESULT:       0.0     13.498     15.307
REMARK  6 active torsions:
REMARK  status: ('A' for Active; 'I' for Inactive)
REMARK    1  A    between atoms: N_8  and  C_18 
REMARK    2  A    between atoms: N_9  and  N_11 
REMARK       I    between atoms: N_9  and  C_22 
REMARK    3  A    between atoms: N_10  and  C_25 
REMARK       I    between atoms: N_11  and  C_27 
REMARK    4  A    between atoms: N_12  and  C_26 
REMARK       I    between atoms: N_12  and  C_27 
REMARK    5  A    between atoms: C_19  and  C_22 
REMARK    6  A    between atoms: C_28  and  C_33 
ROOT
ATOM      1  O   UNL d   1      -5.327   3.309  -4.043  0.00  0.00    -0.267 OA
ATOM      2  N   UNL d   1      -4.770   3.245  -1.789  0.00  0.00    -0.263 N 
ATOM      3  C   UNL d   1      -5.230   3.846  -2.944  0.00  0.00     0.260 C 
ATOM      4  H   UNL d   1      -4.701   3.711  -0.890  0.00  0.00     0.190 HD
ENDROOT
BRANCH   2   5
ATOM      5  N   UNL d   1      -4.377   1.931  -1.836  0.00  0.00    -0.248 N 
ATOM      6  C   UNL d   1      -3.018   1.628  -1.907  0.00  0.00     0.339 C 
ATOM      7  O   UNL d   1      -2.138   2.486  -1.930  0.00  0.00    -0.245 OA
ATOM      8  N   UNL d   1      -2.833   0.244  -1.944  0.00  0.00    -0.308 N 
ATOM      9  H   UNL d   1      -3.674  -0.328  -1.915  0.00  0.00     0.170 HD
ATOM     10  H   UNL d   1      -5.108   1.228  -1.810  0.00  0.00     0.192 HD
BRANCH   8  11
ATOM     11  C   UNL d   1      -1.613  -0.469  -2.016  0.00  0.00     0.037 A 
ATOM     12  C   UNL d   1      -0.985  -0.655  -3.247  0.00  0.00     0.045 A 
ATOM     13  C   UNL d   1       0.217  -1.358  -3.317  0.00  0.00     0.050 A 
ATOM     14  C   UNL d   1       0.792  -1.874  -2.157  0.00  0.00     0.016 A 
ATOM     15  C   UNL d   1       0.165  -1.687  -0.925  0.00  0.00     0.003 A 
ATOM     16  C   UNL d   1      -1.037  -0.985  -0.854  0.00  0.00     0.029 A 
BRANCH  13  17
ATOM     17  C   UNL d   1       0.888  -1.558  -4.635  0.00  0.00     0.417 C 
ATOM     18  F   UNL d   1       0.488  -0.670  -5.593  0.00  0.00    -0.166 F 
ATOM     19  F   UNL d   1       0.669  -2.792  -5.179  0.00  0.00    -0.166 F 
ATOM     20  F   UNL d   1       2.245  -1.428  -4.559  0.00  0.00    -0.166 F 
ENDBRANCH  13  17
ENDBRANCH   8  11
ENDBRANCH   2   5
BRANCH   3  21
ATOM     21  C   UNL d   1      -5.609   5.261  -2.705  0.00  0.00     0.078 C 
ATOM     22  C   UNL d   1      -4.707   6.240  -2.872  0.00  0.00    -0.071 C 
ATOM     23  C   UNL d   1      -5.024   7.692  -2.647  0.00  0.00     0.054 C 
ATOM     24  C   UNL d   1      -3.284   5.982  -3.278  0.00  0.00     0.054 C 
ATOM     25  C   UNL d   1      -4.041   8.309  -1.650  0.00  0.00     0.127 C 
ATOM     26  N   UNL d   1      -2.650   8.029  -2.047  0.00  0.00    -0.380 N 
ATOM     27  C   UNL d   1      -2.311   6.617  -2.282  0.00  0.00     0.127 C 
BRANCH  26  28
ATOM     28  C   UNL d   1      -1.661   8.909  -1.593  0.00  0.00     0.030 A 
ATOM     29  C   UNL d   1      -2.019  10.158  -1.083  0.00  0.00     0.032 A 
ATOM     30  C   UNL d   1      -1.034  11.034  -0.629  0.00  0.00     0.038 A 
ATOM     31  C   UNL d   1       0.310  10.663  -0.686  0.00  0.00     0.103 A 
ATOM     32  C   UNL d   1       0.668   9.416  -1.196  0.00  0.00     0.038 A 
ATOM     33  C   UNL d   1      -0.318   8.538  -1.649  0.00  0.00     0.032 A 
BRANCH  31  34
ATOM     34  N   UNL d   1       1.313  11.556  -0.226  0.00  0.00    -0.116 N 
ATOM     35  O   UNL d   1       0.971  12.674   0.228  0.00  0.00    -0.532 OA
ATOM     36  O   UNL d   1       2.516  11.203  -0.285  0.00  0.00    -0.532 OA
ENDBRANCH  31  34
ENDBRANCH  26  28
ENDBRANCH   3  21
TORSDOF 6
ENDMDL
MODEL 5
REMARK VINA RESULT:       0.0     15.593     16.970
REMARK  6 active torsions:
REMARK  status: ('A' for Active; 'I' for Inactive)
REMARK    1  A    between atoms: N_8  and  C_18 
REMARK    2  A    between atoms: N_9  and  N_11 
REMARK       I    between atoms: N_9  and  C_22 
REMARK    3  A    between atoms: N_10  and  C_25 
REMARK       I    between atoms: N_11  and  C_27 
REMARK    4  A    between atoms: N_12  and  C_26 
REMARK       I    between atoms: N_12  and  C_27 
REMARK    5  A    between atoms: C_19  and  C_22 
REMARK    6  A    between atoms: C_28  and  C_33 
ROOT
ATOM      1  O   UNL d   1       1.220  -2.180  -2.767  0.00  0.00    -0.267 OA
ATOM      2  N   UNL d   1       1.981  -0.284  -3.871  0.00  0.00    -0.263 N 
ATOM      3  C   UNL d   1       1.405  -0.968  -2.819  0.00  0.00     0.260 C 
ATOM      4  H   UNL d   1       2.126   0.720  -3.889  0.00  0.00     0.190 HD
ENDROOT
BRANCH   2   5
ATOM      5  N   UNL d   1       2.397  -0.989  -4.972  0.00  0.00    -0.248 N 
ATOM      6  C   UNL d   1       1.597  -1.003  -6.114  0.00  0.00     0.339 C 
ATOM      7  O   UNL d   1       0.523  -0.409  -6.191  0.00  0.00    -0.245 OA
ATOM      8  N   UNL d   1       2.197  -1.771  -7.115  0.00  0.00    -0.308 N 
ATOM      9  H   UNL d   1       3.093  -2.195  -6.886  0.00  0.00     0.170 HD
ATOM     10  H   UNL d   1       3.286  -1.471  -4.905  0.00  0.00     0.192 HD
BRANCH   8  11
ATOM     11  C   UNL d   1       1.712  -2.034  -8.417  0.00  0.00     0.037 A 
ATOM     12  C   UNL d   1       0.778  -3.049  -8.623  0.00  0.00     0.045 A 
ATOM     13  C   UNL d   1       0.300  -3.308  -9.907  0.00  0.00     0.050 A 
ATOM     14  C   UNL d   1       0.756  -2.552 -10.986  0.00  0.00     0.016 A 
ATOM     15  C   UNL d   1       1.690  -1.536 -10.782  0.00  0.00     0.003 A 
ATOM     16  C   UNL d   1       2.168  -1.277  -9.497  0.00  0.00     0.029 A 
BRANCH  13  17
ATOM     17  C   UNL d   1      -0.698  -4.394 -10.126  0.00  0.00     0.417 C 
ATOM     18  F   UNL d   1      -0.156  -5.544 -10.626  0.00  0.00    -0.166 F 
ATOM     19  F   UNL d   1      -1.689  -4.058 -11.004  0.00  0.00    -0.166 F 
ATOM     20  F   UNL d   1      -1.338  -4.760  -8.977  0.00  0.00    -0.166 F 
ENDBRANCH  13  17
ENDBRANCH   8  11
ENDBRANCH   2   5
BRANCH   3  21
ATOM     21  C   UNL d   1       1.019  -0.048  -1.719  0.00  0.00     0.078 C 
ATOM     22  C   UNL d   1      -0.206   0.495  -1.691  0.00  0.00    -0.071 C 
ATOM     23  C   UNL d   1      -0.662   1.434  -0.608  0.00  0.00     0.054 C 
ATOM     24  C   UNL d   1      -1.242   0.239  -2.749  0.00  0.00     0.054 C 
ATOM     25  C   UNL d   1      -1.175   2.742  -1.212  0.00  0.00     0.127 C 
ATOM     26  N   UNL d   1      -2.172   2.476  -2.264  0.00  0.00    -0.380 N 
ATOM     27  C   UNL d   1      -1.759   1.555  -3.334  0.00  0.00     0.127 C 
BRANCH  26  28
ATOM     28  C   UNL d   1      -3.098   3.487  -2.544  0.00  0.00     0.030 A 
ATOM     29  C   UNL d   1      -3.846   3.442  -3.721  0.00  0.00     0.032 A 
ATOM     30  C   UNL d   1      -4.770   4.448  -4.000  0.00  0.00     0.038 A 
ATOM     31  C   UNL d   1      -4.946   5.501  -3.102  0.00  0.00     0.103 A 
ATOM     32  C   UNL d   1      -4.199   5.547  -1.926  0.00  0.00     0.038 A 
ATOM     33  C   UNL d   1      -3.275   4.540  -1.646  0.00  0.00     0.032 A 
BRANCH  31  34
ATOM     34  N   UNL d   1      -5.886   6.527  -3.386  0.00  0.00    -0.116 N 
ATOM     35  O   UNL d   1      -6.547   6.469  -4.451  0.00  0.00    -0.532 OA
ATOM     36  O   UNL d   1      -6.029   7.466  -2.565  0.00  0.00    -0.532 OA
ENDBRANCH  31  34
ENDBRANCH  26  28
ENDBRANCH   3  21
TORSDOF 6
ENDMDL
MODEL 6
REMARK VINA RESULT:       0.0     11.991     18.518
REMARK  6 active torsions:
REMARK  status: ('A' for Active; 'I' for Inactive)
REMARK    1  A    between atoms: N_8  and  C_18 
REMARK    2  A    between atoms: N_9  and  N_11 
REMARK       I    between atoms: N_9  and  C_22 
REMARK    3  A    between atoms: N_10  and  C_25 
REMARK       I    between atoms: N_11  and  C_27 
REMARK    4  A    between atoms: N_12  and  C_26 
REMARK       I    between atoms: N_12  and  C_27 
REMARK    5  A    between atoms: C_19  and  C_22 
REMARK    6  A    between atoms: C_28  and  C_33 
ROOT
ATOM      1  O   UNL d   1       7.867  -4.935   8.909  0.00  0.00    -0.267 OA
ATOM      2  N   UNL d   1       8.849  -3.318   7.562  0.00  0.00    -0.263 N 
ATOM      3  C   UNL d   1       8.851  -4.317   8.515  0.00  0.00     0.260 C 
ATOM      4  H   UNL d   1       9.678  -2.822   7.251  0.00  0.00     0.190 HD
ENDROOT
BRANCH   2   5
ATOM      5  N   UNL d   1       7.659  -2.958   6.980  0.00  0.00    -0.248 N 
ATOM      6  C   UNL d   1       7.006  -1.807   7.422  0.00  0.00     0.339 C 
ATOM      7  O   UNL d   1       7.444  -1.086   8.315  0.00  0.00    -0.245 OA
ATOM      8  N   UNL d   1       5.822  -1.619   6.704  0.00  0.00    -0.308 N 
ATOM      9  H   UNL d   1       5.607  -2.313   5.993  0.00  0.00     0.170 HD
ATOM     10  H   UNL d   1       7.307  -3.553   6.240  0.00  0.00     0.192 HD
BRANCH   8  11
ATOM     11  C   UNL d   1       4.877  -0.576   6.845  0.00  0.00     0.037 A 
ATOM     12  C   UNL d   1       3.917  -0.635   7.855  0.00  0.00     0.045 A 
ATOM     13  C   UNL d   1       2.985   0.393   7.992  0.00  0.00     0.050 A 
ATOM     14  C   UNL d   1       3.013   1.481   7.120  0.00  0.00     0.016 A 
ATOM     15  C   UNL d   1       3.974   1.541   6.111  0.00  0.00     0.003 A 
ATOM     16  C   UNL d   1       4.906   0.513   5.973  0.00  0.00     0.029 A 
BRANCH  13  17
ATOM     17  C   UNL d   1       1.958   0.329   9.072  0.00  0.00     0.417 C 
ATOM     18  F   UNL d   1       2.364  -0.369  10.174  0.00  0.00    -0.166 F 
ATOM     19  F   UNL d   1       0.792  -0.268   8.683  0.00  0.00    -0.166 F 
ATOM     20  F   UNL d   1       1.600   1.564   9.531  0.00  0.00    -0.166 F 
ENDBRANCH  13  17
ENDBRANCH   8  11
ENDBRANCH   2   5
BRANCH   3  21
ATOM     21  C   UNL d   1      10.219  -4.572   9.031  0.00  0.00     0.078 C 
ATOM     22  C   UNL d   1      10.671  -3.911  10.106  0.00  0.00    -0.071 C 
ATOM     23  C   UNL d   1      12.044  -4.120  10.680  0.00  0.00     0.054 C 
ATOM     24  C   UNL d   1       9.858  -2.877  10.834  0.00  0.00     0.054 C 
ATOM     25  C   UNL d   1      12.795  -2.791  10.777  0.00  0.00     0.127 C 
ATOM     26  N   UNL d   1      11.979  -1.780  11.472  0.00  0.00    -0.380 N 
ATOM     27  C   UNL d   1      10.626  -1.557  10.939  0.00  0.00     0.127 C 
BRANCH  26  28
ATOM     28  C   UNL d   1      12.654  -0.727  12.100  0.00  0.00     0.030 A 
ATOM     29  C   UNL d   1      14.025  -0.822  12.339  0.00  0.00     0.032 A 
ATOM     30  C   UNL d   1      14.699   0.227  12.964  0.00  0.00     0.038 A 
ATOM     31  C   UNL d   1      14.000   1.371  13.352  0.00  0.00     0.103 A 
ATOM     32  C   UNL d   1      12.630   1.466  13.113  0.00  0.00     0.038 A 
ATOM     33  C   UNL d   1      11.956   0.417  12.487  0.00  0.00     0.032 A 
BRANCH  31  34
ATOM     34  N   UNL d   1      14.685   2.439  13.989  0.00  0.00    -0.116 N 
ATOM     35  O   UNL d   1      15.919   2.335  14.193  0.00  0.00    -0.532 OA
ATOM     36  O   UNL d   1      14.038   3.458  14.334  0.00  0.00    -0.532 OA
ENDBRANCH  31  34
ENDBRANCH  26  28
ENDBRANCH   3  21
TORSDOF 6
ENDMDL
MODEL 7
REMARK VINA RESULT:       0.0      7.903     11.174
REMARK  6 active torsions:
REMARK  status: ('A' for Active; 'I' for Inactive)
REMARK    1  A    between atoms: N_8  and  C_18 
REMARK    2  A    between atoms: N_9  and  N_11 
REMARK       I    between atoms: N_9  and  C_22 
REMARK    3  A    between atoms: N_10  and  C_25 
REMARK       I    between atoms: N_11  and  C_27 
REMARK    4  A    between atoms: N_12  and  C_26 
REMARK       I    between atoms: N_12  and  C_27 
REMARK    5  A    between atoms: C_19  and  C_22 
REMARK    6  A    between atoms: C_28  and  C_33 
ROOT
ATOM      1  O   UNL d   1      -1.220   1.457   2.474  0.00  0.00    -0.267 OA
ATOM      2  N   UNL d   1      -3.252   0.334   2.523  0.00  0.00    -0.263 N 
ATOM      3  C   UNL d   1      -2.275   1.166   3.030  0.00  0.00     0.260 C 
ATOM      4  H   UNL d   1      -4.118   0.110   3.002  0.00  0.00     0.190 HD
ENDROOT
BRANCH   2   5
ATOM      5  N   UNL d   1      -3.063  -0.237   1.289  0.00  0.00    -0.248 N 
ATOM      6  C   UNL d   1      -2.622  -1.558   1.211  0.00  0.00     0.339 C 
ATOM      7  O   UNL d   1      -2.391  -2.251   2.200  0.00  0.00    -0.245 OA
ATOM      8  N   UNL d   1      -2.496  -1.946  -0.126  0.00  0.00    -0.308 N 
ATOM      9  H   UNL d   1      -2.730  -1.247  -0.826  0.00  0.00     0.170 HD
ATOM     10  H   UNL d   1      -3.261   0.337   0.478  0.00  0.00     0.192 HD
BRANCH   8  11
ATOM     11  C   UNL d   1      -2.079  -3.200  -0.631  0.00  0.00     0.037 A 
ATOM     12  C   UNL d   1      -0.720  -3.487  -0.752  0.00  0.00     0.045 A 
ATOM     13  C   UNL d   1      -0.310  -4.723  -1.250  0.00  0.00     0.050 A 
ATOM     14  C   UNL d   1      -1.259  -5.672  -1.629  0.00  0.00     0.016 A 
ATOM     15  C   UNL d   1      -2.619  -5.386  -1.508  0.00  0.00     0.003 A 
ATOM     16  C   UNL d   1      -3.029  -4.149  -1.009  0.00  0.00     0.029 A 
BRANCH  13  17
ATOM     17  C   UNL d   1       1.144  -5.030  -1.380  0.00  0.00     0.417 C 
ATOM     18  F   UNL d   1       1.929  -4.340  -0.500  0.00  0.00    -0.166 F 
ATOM     19  F   UNL d   1       1.656  -4.744  -2.614  0.00  0.00    -0.166 F 
ATOM     20  F   UNL d   1       1.424  -6.349  -1.165  0.00  0.00    -0.166 F 
ENDBRANCH  13  17
ENDBRANCH   8  11
ENDBRANCH   2   5
BRANCH   3  21
ATOM     21  C   UNL d   1      -2.649   1.691   4.368  0.00  0.00     0.078 C 
ATOM     22  C   UNL d   1      -2.296   1.026   5.477  0.00  0.00    -0.071 C 
ATOM     23  C   UNL d   1      -2.642   1.501   6.861  0.00  0.00     0.054 C 
ATOM     24  C   UNL d   1      -1.538  -0.271   5.450  0.00  0.00     0.054 C 
ATOM     25  C   UNL d   1      -3.383   0.408   7.634  0.00  0.00     0.127 C 
ATOM     26  N   UNL d   1      -2.642  -0.864   7.580  0.00  0.00    -0.380 N 
ATOM     27  C   UNL d   1      -2.281  -1.351   6.240  0.00  0.00     0.127 C 
BRANCH  26  28
ATOM     28  C   UNL d   1      -2.865  -1.784   8.611  0.00  0.00     0.030 A 
ATOM     29  C   UNL d   1      -2.451  -3.109   8.465  0.00  0.00     0.032 A 
ATOM     30  C   UNL d   1      -2.672  -4.026   9.492  0.00  0.00     0.038 A 
ATOM     31  C   UNL d   1      -3.309  -3.618  10.666  0.00  0.00     0.103 A 
ATOM     32  C   UNL d   1      -3.723  -2.295  10.811  0.00  0.00     0.038 A 
ATOM     33  C   UNL d   1      -3.501  -1.378   9.784  0.00  0.00     0.032 A 
BRANCH  31  34
ATOM     34  N   UNL d   1      -3.536  -4.552  11.711  0.00  0.00    -0.116 N 
ATOM     35  O   UNL d   1      -3.213  -5.751  11.536  0.00  0.00    -0.532 OA
ATOM     36  O   UNL d   1      -4.055  -4.152  12.782  0.00  0.00    -0.532 OA
ENDBRANCH  31  34
ENDBRANCH  26  28
ENDBRANCH   3  21
TORSDOF 6
ENDMDL
MODEL 8
REMARK VINA RESULT:       0.0     19.844     23.301
REMARK  6 active torsions:
REMARK  status: ('A' for Active; 'I' for Inactive)
REMARK    1  A    between atoms: N_8  and  C_18 
REMARK    2  A    between atoms: N_9  and  N_11 
REMARK       I    between atoms: N_9  and  C_22 
REMARK    3  A    between atoms: N_10  and  C_25 
REMARK       I    between atoms: N_11  and  C_27 
REMARK    4  A    between atoms: N_12  and  C_26 
REMARK       I    between atoms: N_12  and  C_27 
REMARK    5  A    between atoms: C_19  and  C_22 
REMARK    6  A    between atoms: C_28  and  C_33 
ROOT
ATOM      1  O   UNL d   1      -5.298  15.547  -8.120  0.00  0.00    -0.267 OA
ATOM      2  N   UNL d   1      -3.609  14.334  -7.085  0.00  0.00    -0.263 N 
ATOM      3  C   UNL d   1      -4.195  15.009  -8.137  0.00  0.00     0.260 C 
ATOM      4  H   UNL d   1      -2.694  13.899  -7.123  0.00  0.00     0.190 HD
ENDROOT
BRANCH   2   5
ATOM      5  N   UNL d   1      -4.291  14.237  -5.898  0.00  0.00    -0.248 N 
ATOM      6  C   UNL d   1      -4.953  13.050  -5.588  0.00  0.00     0.339 C 
ATOM      7  O   UNL d   1      -4.961  12.070  -6.330  0.00  0.00    -0.245 OA
ATOM      8  N   UNL d   1      -5.579  13.156  -4.343  0.00  0.00    -0.308 N 
ATOM      9  H   UNL d   1      -5.472  14.043  -3.856  0.00  0.00     0.170 HD
ATOM     10  H   UNL d   1      -4.276  15.046  -5.288  0.00  0.00     0.192 HD
BRANCH   8  11
ATOM     11  C   UNL d   1      -6.349  12.179  -3.670  0.00  0.00     0.037 A 
ATOM     12  C   UNL d   1      -7.702  12.027  -3.971  0.00  0.00     0.045 A 
ATOM     13  C   UNL d   1      -8.460  11.063  -3.307  0.00  0.00     0.050 A 
ATOM     14  C   UNL d   1      -7.865  10.251  -2.342  0.00  0.00     0.016 A 
ATOM     15  C   UNL d   1      -6.512  10.402  -2.041  0.00  0.00     0.003 A 
ATOM     16  C   UNL d   1      -5.754  11.366  -2.705  0.00  0.00     0.029 A 
BRANCH  13  17
ATOM     17  C   UNL d   1      -9.907  10.901  -3.630  0.00  0.00     0.417 C 
ATOM     18  F   UNL d   1     -10.219  11.213  -4.923  0.00  0.00    -0.166 F 
ATOM     19  F   UNL d   1     -10.728  11.683  -2.868  0.00  0.00    -0.166 F 
ATOM     20  F   UNL d   1     -10.347   9.622  -3.444  0.00  0.00    -0.166 F 
ENDBRANCH  13  17
ENDBRANCH   8  11
ENDBRANCH   2   5
BRANCH   3  21
ATOM     21  C   UNL d   1      -3.317  15.013  -9.335  0.00  0.00     0.078 C 
ATOM     22  C   UNL d   1      -3.414  14.037 -10.248  0.00  0.00    -0.071 C 
ATOM     23  C   UNL d   1      -2.557  13.981 -11.482  0.00  0.00     0.054 C 
ATOM     24  C   UNL d   1      -4.374  12.888 -10.121  0.00  0.00     0.054 C 
ATOM     25  C   UNL d   1      -1.831  12.637 -11.571  0.00  0.00     0.127 C 
ATOM     26  N   UNL d   1      -2.780  11.520 -11.422  0.00  0.00    -0.380 N 
ATOM     27  C   UNL d   1      -3.638  11.550 -10.228  0.00  0.00     0.127 C 
BRANCH  26  28
ATOM     28  C   UNL d   1      -2.417  10.289 -11.979  0.00  0.00     0.030 A 
ATOM     29  C   UNL d   1      -3.091   9.127 -11.602  0.00  0.00     0.032 A 
ATOM     30  C   UNL d   1      -2.732   7.900 -12.157  0.00  0.00     0.038 A 
ATOM     31  C   UNL d   1      -1.696   7.833 -13.091  0.00  0.00     0.103 A 
ATOM     32  C   UNL d   1      -1.022   8.994 -13.467  0.00  0.00     0.038 A 
ATOM     33  C   UNL d   1      -1.383  10.222 -12.912  0.00  0.00     0.032 A 
BRANCH  31  34
ATOM     34  N   UNL d   1      -1.328   6.584 -13.656  0.00  0.00    -0.116 N 
ATOM     35  O   UNL d   1      -0.387   6.544 -14.485  0.00  0.00    -0.532 OA
ATOM     36  O   UNL d   1      -1.954   5.552 -13.311  0.00  0.00    -0.532 OA
ENDBRANCH  31  34
ENDBRANCH  26  28
ENDBRANCH   3  21
TORSDOF 6
ENDMDL
MODEL 9
REMARK VINA RESULT:       0.0      6.961     10.773
REMARK  6 active torsions:
REMARK  status: ('A' for Active; 'I' for Inactive)
REMARK    1  A    between atoms: N_8  and  C_18 
REMARK    2  A    between atoms: N_9  and  N_11 
REMARK       I    between atoms: N_9  and  C_22 
REMARK    3  A    between atoms: N_10  and  C_25 
REMARK       I    between atoms: N_11  and  C_27 
REMARK    4  A    between atoms: N_12  and  C_26 
REMARK       I    between atoms: N_12  and  C_27 
REMARK    5  A    between atoms: C_19  and  C_22 
REMARK    6  A    between atoms: C_28  and  C_33 
ROOT
ATOM      1  O   UNL d   1      -0.043  -3.814   6.938  0.00  0.00    -0.267 OA
ATOM      2  N   UNL d   1      -1.644  -2.177   7.328  0.00  0.00    -0.263 N 
ATOM      3  C   UNL d   1      -0.414  -2.644   6.910  0.00  0.00     0.260 C 
ATOM      4  H   UNL d   1      -1.929  -1.204   7.292  0.00  0.00     0.190 HD
ENDROOT
BRANCH   2   5
ATOM      5  N   UNL d   1      -2.560  -3.072   7.824  0.00  0.00    -0.248 N 
ATOM      6  C   UNL d   1      -2.724  -3.184   9.204  0.00  0.00     0.339 C 
ATOM      7  O   UNL d   1      -2.084  -2.516  10.014  0.00  0.00    -0.245 OA
ATOM      8  N   UNL d   1      -3.698  -4.142   9.499  0.00  0.00    -0.308 N 
ATOM      9  H   UNL d   1      -4.133  -4.605   8.705  0.00  0.00     0.170 HD
ATOM     10  H   UNL d   1      -3.088  -3.615   7.150  0.00  0.00     0.192 HD
BRANCH   8  11
ATOM     11  C   UNL d   1      -4.157  -4.552  10.772  0.00  0.00     0.037 A 
ATOM     12  C   UNL d   1      -3.508  -5.583  11.449  0.00  0.00     0.045 A 
ATOM     13  C   UNL d   1      -3.962  -5.986  12.705  0.00  0.00     0.050 A 
ATOM     14  C   UNL d   1      -5.064  -5.358  13.283  0.00  0.00     0.016 A 
ATOM     15  C   UNL d   1      -5.713  -4.326  12.606  0.00  0.00     0.003 A 
ATOM     16  C   UNL d   1      -5.260  -3.923  11.350  0.00  0.00     0.029 A 
BRANCH  13  17
ATOM     17  C   UNL d   1      -3.268  -7.090  13.429  0.00  0.00     0.417 C 
ATOM     18  F   UNL d   1      -4.018  -8.226  13.546  0.00  0.00    -0.166 F 
ATOM     19  F   UNL d   1      -2.912  -6.767  14.708  0.00  0.00    -0.166 F 
ATOM     20  F   UNL d   1      -2.111  -7.476  12.816  0.00  0.00    -0.166 F 
ENDBRANCH  13  17
ENDBRANCH   8  11
ENDBRANCH   2   5
BRANCH   3  21
ATOM     21  C   UNL d   1       0.442  -1.541   6.406  0.00  0.00     0.078 C 
ATOM     22  C   UNL d   1       1.268  -0.892   7.238  0.00  0.00    -0.071 C 
ATOM     23  C   UNL d   1       2.161   0.233   6.794  0.00  0.00     0.054 C 
ATOM     24  C   UNL d   1       1.369  -1.207   8.704  0.00  0.00     0.054 C 
ATOM     25  C   UNL d   1       1.921   1.479   7.648  0.00  0.00     0.127 C 
ATOM     26  N   UNL d   1       2.000   1.152   9.083  0.00  0.00    -0.380 N 
ATOM     27  C   UNL d   1       1.143   0.050   9.547  0.00  0.00     0.127 C 
BRANCH  26  28
ATOM     28  C   UNL d   1       2.325   2.190   9.963  0.00  0.00     0.030 A 
ATOM     29  C   UNL d   1       2.875   3.375   9.472  0.00  0.00     0.032 A 
ATOM     30  C   UNL d   1       3.199   4.409  10.349  0.00  0.00     0.038 A 
ATOM     31  C   UNL d   1       2.974   4.259  11.718  0.00  0.00     0.103 A 
ATOM     32  C   UNL d   1       2.426   3.075  12.209  0.00  0.00     0.038 A 
ATOM     33  C   UNL d   1       2.101   2.041  11.332  0.00  0.00     0.032 A 
BRANCH  31  34
ATOM     34  N   UNL d   1       3.306   5.312  12.612  0.00  0.00    -0.116 N 
ATOM     35  O   UNL d   1       3.093   5.158  13.838  0.00  0.00    -0.532 OA
ATOM     36  O   UNL d   1       3.801   6.369  12.150  0.00  0.00    -0.532 OA
ENDBRANCH  31  34
ENDBRANCH  26  28
ENDBRANCH   3  21
TORSDOF 6
ENDMDL
