MODEL 1
REMARK VINA RESULT:      -0.0      0.000      0.000
REMARK  6 active torsions:
REMARK  status: ('A' for Active; 'I' for Inactive)
REMARK    1  A    between atoms: N_8  and  C_18 
REMARK    2  A    between atoms: N_9  and  N_11 
REMARK       I    between atoms: N_9  and  C_22 
REMARK    3  A    between atoms: N_10  and  C_25 
REMARK       I    between atoms: N_11  and  C_27 
REMARK    4  A    between atoms: N_12  and  C_26 
REMARK       I    between atoms: N_12  and  C_27 
REMARK    5  A    between atoms: C_19  and  C_22 
REMARK    6  A    between atoms: C_28  and  C_33 
ROOT
ATOM      1  O   UNL d   1       2.025  -7.717  -1.767  0.00  0.00    -0.267 OA
ATOM      2  N   UNL d   1       0.644  -6.593  -3.258  0.00  0.00    -0.263 N 
ATOM      3  C   UNL d   1       1.588  -7.535  -2.899  0.00  0.00     0.260 C 
ATOM      4  H   UNL d   1       0.297  -6.463  -4.202  0.00  0.00     0.190 HD
ENDROOT
BRANCH   2   5
ATOM      5  N   UNL d   1       0.126  -5.770  -2.289  0.00  0.00    -0.248 N 
ATOM      6  C   UNL d   1       0.609  -4.467  -2.172  0.00  0.00     0.339 C 
ATOM      7  O   UNL d   1       1.486  -4.007  -2.900  0.00  0.00    -0.245 OA
ATOM      8  N   UNL d   1      -0.046  -3.800  -1.134  0.00  0.00    -0.308 N 
ATOM      9  H   UNL d   1      -0.752  -4.330  -0.628  0.00  0.00     0.170 HD
ATOM     10  H   UNL d   1      -0.601  -6.153  -1.696  0.00  0.00     0.192 HD
BRANCH   8  11
ATOM     11  C   UNL d   1       0.151  -2.470  -0.694  0.00  0.00     0.037 A 
ATOM     12  C   UNL d   1       1.184  -2.174   0.195  0.00  0.00     0.045 A 
ATOM     13  C   UNL d   1       1.377  -0.863   0.628  0.00  0.00     0.050 A 
ATOM     14  C   UNL d   1       0.537   0.153   0.172  0.00  0.00     0.016 A 
ATOM     15  C   UNL d   1      -0.496  -0.142  -0.717  0.00  0.00     0.003 A 
ATOM     16  C   UNL d   1      -0.689  -1.454  -1.151  0.00  0.00     0.029 A 
BRANCH  13  17
ATOM     17  C   UNL d   1       2.481  -0.547   1.579  0.00  0.00     0.417 C 
ATOM     18  F   UNL d   1       3.552  -1.390   1.475  0.00  0.00    -0.166 F 
ATOM     19  F   UNL d   1       2.107  -0.608   2.892  0.00  0.00    -0.166 F 
ATOM     20  F   UNL d   1       2.985   0.709   1.402  0.00  0.00    -0.166 F 
ENDBRANCH  13  17
ENDBRANCH   8  11
ENDBRANCH   2   5
BRANCH   3  21
ATOM     21  C   UNL d   1       2.032  -8.331  -4.070  0.00  0.00     0.078 C 
ATOM     22  C   UNL d   1       3.089  -7.937  -4.794  0.00  0.00    -0.071 C 
ATOM     23  C   UNL d   1       3.592  -8.695  -5.991  0.00  0.00     0.054 C 
ATOM     24  C   UNL d   1       3.865  -6.685  -4.497  0.00  0.00     0.054 C 
ATOM     25  C   UNL d   1       3.663  -7.781  -7.216  0.00  0.00     0.127 C 
ATOM     26  N   UNL d   1       4.406  -6.547  -6.904  0.00  0.00    -0.380 N 
ATOM     27  C   UNL d   1       3.943  -5.786  -5.734  0.00  0.00     0.127 C 
BRANCH  26  28
ATOM     28  C   UNL d   1       5.008  -5.872  -7.971  0.00  0.00     0.030 A 
ATOM     29  C   UNL d   1       5.438  -4.554  -7.809  0.00  0.00     0.032 A 
ATOM     30  C   UNL d   1       6.039  -3.881  -8.871  0.00  0.00     0.038 A 
ATOM     31  C   UNL d   1       6.210  -4.524 -10.098  0.00  0.00     0.103 A 
ATOM     32  C   UNL d   1       5.779  -5.840 -10.261  0.00  0.00     0.038 A 
ATOM     33  C   UNL d   1       5.179  -6.514  -9.197  0.00  0.00     0.032 A 
BRANCH  31  34
ATOM     34  N   UNL d   1       6.820  -3.838 -11.181  0.00  0.00    -0.116 N 
ATOM     35  O   UNL d   1       6.965  -4.435 -12.275  0.00  0.00    -0.532 OA
ATOM     36  O   UNL d   1       7.200  -2.654 -11.014  0.00  0.00    -0.532 OA
ENDBRANCH  31  34
ENDBRANCH  26  28
ENDBRANCH   3  21
TORSDOF 6
ENDMDL
MODEL 2
REMARK VINA RESULT:      -0.0     11.379     15.547
REMARK  6 active torsions:
REMARK  status: ('A' for Active; 'I' for Inactive)
REMARK    1  A    between atoms: N_8  and  C_18 
REMARK    2  A    between atoms: N_9  and  N_11 
REMARK       I    between atoms: N_9  and  C_22 
REMARK    3  A    between atoms: N_10  and  C_25 
REMARK       I    between atoms: N_11  and  C_27 
REMARK    4  A    between atoms: N_12  and  C_26 
REMARK       I    between atoms: N_12  and  C_27 
REMARK    5  A    between atoms: C_19  and  C_22 
REMARK    6  A    between atoms: C_28  and  C_33 
ROOT
ATOM      1  O   UNL d   1      11.048   3.484 -11.226  0.00  0.00    -0.267 OA
ATOM      2  N   UNL d   1      10.319   2.832 -13.333  0.00  0.00    -0.263 N 
ATOM      3  C   UNL d   1      11.033   3.613 -12.446  0.00  0.00     0.260 C 
ATOM      4  H   UNL d   1      10.325   2.958 -14.339  0.00  0.00     0.190 HD
ENDROOT
BRANCH   2   5
ATOM      5  N   UNL d   1       9.547   1.809 -12.842  0.00  0.00    -0.248 N 
ATOM      6  C   UNL d   1       8.170   1.995 -12.715  0.00  0.00     0.339 C 
ATOM      7  O   UNL d   1       7.602   3.040 -13.025  0.00  0.00    -0.245 OA
ATOM      8  N   UNL d   1       7.572   0.842 -12.202  0.00  0.00    -0.308 N 
ATOM      9  H   UNL d   1       8.192   0.061 -12.000  0.00  0.00     0.170 HD
ATOM     10  H   UNL d   1      10.021   0.948 -12.594  0.00  0.00     0.192 HD
BRANCH   8  11
ATOM     11  C   UNL d   1       6.203   0.622 -11.926  0.00  0.00     0.037 A 
ATOM     12  C   UNL d   1       5.649   1.076 -10.730  0.00  0.00     0.045 A 
ATOM     13  C   UNL d   1       4.299   0.859 -10.459  0.00  0.00     0.050 A 
ATOM     14  C   UNL d   1       3.501   0.187 -11.384  0.00  0.00     0.016 A 
ATOM     15  C   UNL d   1       4.054  -0.268 -12.582  0.00  0.00     0.003 A 
ATOM     16  C   UNL d   1       5.404  -0.050 -12.853  0.00  0.00     0.029 A 
BRANCH  13  17
ATOM     17  C   UNL d   1       3.708   1.345  -9.179  0.00  0.00     0.417 C 
ATOM     18  F   UNL d   1       4.319   2.462  -8.682  0.00  0.00    -0.166 F 
ATOM     19  F   UNL d   1       3.766   0.429  -8.167  0.00  0.00    -0.166 F 
ATOM     20  F   UNL d   1       2.388   1.672  -9.299  0.00  0.00    -0.166 F 
ENDBRANCH  13  17
ENDBRANCH   8  11
ENDBRANCH   2   5
BRANCH   3  21
ATOM     21  C   UNL d   1      11.809   4.664 -13.153  0.00  0.00     0.078 C 
ATOM     22  C   UNL d   1      11.268   5.872 -13.371  0.00  0.00    -0.071 C 
ATOM     23  C   UNL d   1      11.997   6.980 -14.079  0.00  0.00     0.054 C 
ATOM     24  C   UNL d   1       9.873   6.233 -12.948  0.00  0.00     0.054 C 
ATOM     25  C   UNL d   1      11.174   7.494 -15.261  0.00  0.00     0.127 C 
ATOM     26  N   UNL d   1       9.801   7.823 -14.839  0.00  0.00    -0.380 N 
ATOM     27  C   UNL d   1       9.065   6.761 -14.137  0.00  0.00     0.127 C 
BRANCH  26  28
ATOM     28  C   UNL d   1       9.098   8.758 -15.607  0.00  0.00     0.030 A 
ATOM     29  C   UNL d   1       9.780   9.574 -16.509  0.00  0.00     0.032 A 
ATOM     30  C   UNL d   1       9.080  10.506 -17.275  0.00  0.00     0.038 A 
ATOM     31  C   UNL d   1       7.696  10.622 -17.137  0.00  0.00     0.103 A 
ATOM     32  C   UNL d   1       7.014   9.806 -16.235  0.00  0.00     0.038 A 
ATOM     33  C   UNL d   1       7.715   8.874 -15.470  0.00  0.00     0.032 A 
BRANCH  31  34
ATOM     34  N   UNL d   1       6.982  11.571 -17.915  0.00  0.00    -0.116 N 
ATOM     35  O   UNL d   1       7.614  12.297 -18.720  0.00  0.00    -0.532 OA
ATOM     36  O   UNL d   1       5.737  11.660 -17.776  0.00  0.00    -0.532 OA
ENDBRANCH  31  34
ENDBRANCH  26  28
ENDBRANCH   3  21
TORSDOF 6
ENDMDL
MODEL 3
REMARK VINA RESULT:      -0.0     15.241     16.376
REMARK  6 active torsions:
REMARK  status: ('A' for Active; 'I' for Inactive)
REMARK    1  A    between atoms: N_8  and  C_18 
REMARK    2  A    between atoms: N_9  and  N_11 
REMARK       I    between atoms: N_9  and  C_22 
REMARK    3  A    between atoms: N_10  and  C_25 
REMARK       I    between atoms: N_11  and  C_27 
REMARK    4  A    between atoms: N_12  and  C_26 
REMARK       I    between atoms: N_12  and  C_27 
REMARK    5  A    between atoms: C_19  and  C_22 
REMARK    6  A    between atoms: C_28  and  C_33 
ROOT
ATOM      1  O   UNL d   1       7.830  10.605   5.335  0.00  0.00    -0.267 OA
ATOM      2  N   UNL d   1       7.352   8.605   4.257  0.00  0.00    -0.263 N 
ATOM      3  C   UNL d   1       8.135   9.698   4.568  0.00  0.00     0.260 C 
ATOM      4  H   UNL d   1       7.628   7.865   3.620  0.00  0.00     0.190 HD
ENDROOT
BRANCH   2   5
ATOM      5  N   UNL d   1       6.115   8.488   4.841  0.00  0.00    -0.248 N 
ATOM      6  C   UNL d   1       4.981   8.841   4.110  0.00  0.00     0.339 C 
ATOM      7  O   UNL d   1       5.027   9.257   2.954  0.00  0.00    -0.245 OA
ATOM      8  N   UNL d   1       3.831   8.649   4.880  0.00  0.00    -0.308 N 
ATOM      9  H   UNL d   1       3.970   8.295   5.823  0.00  0.00     0.170 HD
ATOM     10  H   UNL d   1       6.082   8.139   5.792  0.00  0.00     0.192 HD
BRANCH   8  11
ATOM     11  C   UNL d   1       2.487   8.886   4.510  0.00  0.00     0.037 A 
ATOM     12  C   UNL d   1       1.951  10.170   4.608  0.00  0.00     0.045 A 
ATOM     13  C   UNL d   1       0.626  10.403   4.242  0.00  0.00     0.050 A 
ATOM     14  C   UNL d   1      -0.165   9.352   3.778  0.00  0.00     0.016 A 
ATOM     15  C   UNL d   1       0.370   8.068   3.678  0.00  0.00     0.003 A 
ATOM     16  C   UNL d   1       1.696   7.835   4.044  0.00  0.00     0.029 A 
BRANCH  13  17
ATOM     17  C   UNL d   1       0.053  11.776   4.349  0.00  0.00     0.417 C 
ATOM     18  F   UNL d   1       0.983  12.768   4.219  0.00  0.00    -0.166 F 
ATOM     19  F   UNL d   1      -0.563  12.021   5.543  0.00  0.00    -0.166 F 
ATOM     20  F   UNL d   1      -0.888  12.028   3.394  0.00  0.00    -0.166 F 
ENDBRANCH  13  17
ENDBRANCH   8  11
ENDBRANCH   2   5
BRANCH   3  21
ATOM     21  C   UNL d   1       9.433   9.657   3.848  0.00  0.00     0.078 C 
ATOM     22  C   UNL d   1       9.559  10.241   2.647  0.00  0.00    -0.071 C 
ATOM     23  C   UNL d   1      10.843  10.237   1.864  0.00  0.00     0.054 C 
ATOM     24  C   UNL d   1       8.425  10.940   1.953  0.00  0.00     0.054 C 
ATOM     25  C   UNL d   1      10.615   9.669   0.462  0.00  0.00     0.127 C 
ATOM     26  N   UNL d   1       9.486  10.346  -0.199  0.00  0.00    -0.380 N 
ATOM     27  C   UNL d   1       8.218  10.374   0.545  0.00  0.00     0.127 C 
BRANCH  26  28
ATOM     28  C   UNL d   1       9.464  10.346  -1.598  0.00  0.00     0.030 A 
ATOM     29  C   UNL d   1      10.617  10.020  -2.313  0.00  0.00     0.032 A 
ATOM     30  C   UNL d   1      10.596  10.019  -3.707  0.00  0.00     0.038 A 
ATOM     31  C   UNL d   1       9.421  10.344  -4.387  0.00  0.00     0.103 A 
ATOM     32  C   UNL d   1       8.269  10.670  -3.672  0.00  0.00     0.038 A 
ATOM     33  C   UNL d   1       8.291  10.671  -2.278  0.00  0.00     0.032 A 
BRANCH  31  34
ATOM     34  N   UNL d   1       9.399  10.344  -5.807  0.00  0.00    -0.116 N 
ATOM     35  O   UNL d   1       8.333  10.639  -6.399  0.00  0.00    -0.532 OA
ATOM     36  O   UNL d   1      10.447  10.049  -6.432  0.00  0.00    -0.532 OA
ENDBRANCH  31  34
ENDBRANCH  26  28
ENDBRANCH   3  21
TORSDOF 6
ENDMDL
MODEL 4
REMARK VINA RESULT:      -0.0     12.019     15.366
REMARK  6 active torsions:
REMARK  status: ('A' for Active; 'I' for Inactive)
REMARK    1  A    between atoms: N_8  and  C_18 
REMARK    2  A    between atoms: N_9  and  N_11 
REMARK       I    between atoms: N_9  and  C_22 
REMARK    3  A    between atoms: N_10  and  C_25 
REMARK       I    between atoms: N_11  and  C_27 
REMARK    4  A    between atoms: N_12  and  C_26 
REMARK       I    between atoms: N_12  and  C_27 
REMARK    5  A    between atoms: C_19  and  C_22 
REMARK    6  A    between atoms: C_28  and  C_33 
ROOT
ATOM      1  O   UNL d   1      -8.330  -5.393  -7.288  0.00  0.00    -0.267 OA
ATOM      2  N   UNL d   1      -7.354  -6.259  -5.367  0.00  0.00    -0.263 N 
ATOM      3  C   UNL d   1      -8.079  -6.332  -6.540  0.00  0.00     0.260 C 
ATOM      4  H   UNL d   1      -7.157  -7.053  -4.766  0.00  0.00     0.190 HD
ENDROOT
BRANCH   2   5
ATOM      5  N   UNL d   1      -6.853  -5.044  -4.971  0.00  0.00    -0.248 N 
ATOM      6  C   UNL d   1      -7.521  -4.321  -3.984  0.00  0.00     0.339 C 
ATOM      7  O   UNL d   1      -8.550  -4.717  -3.440  0.00  0.00    -0.245 OA
ATOM      8  N   UNL d   1      -6.852  -3.121  -3.727  0.00  0.00    -0.308 N 
ATOM      9  H   UNL d   1      -6.009  -2.947  -4.269  0.00  0.00     0.170 HD
ATOM     10  H   UNL d   1      -6.001  -4.726  -5.420  0.00  0.00     0.192 HD
BRANCH   8  11
ATOM     11  C   UNL d   1      -7.202  -2.111  -2.802  0.00  0.00     0.037 A 
ATOM     12  C   UNL d   1      -8.161  -1.157  -3.139  0.00  0.00     0.045 A 
ATOM     13  C   UNL d   1      -8.506  -0.162  -2.225  0.00  0.00     0.050 A 
ATOM     14  C   UNL d   1      -7.891  -0.120  -0.974  0.00  0.00     0.016 A 
ATOM     15  C   UNL d   1      -6.931  -1.074  -0.636  0.00  0.00     0.003 A 
ATOM     16  C   UNL d   1      -6.587  -2.070  -1.550  0.00  0.00     0.029 A 
BRANCH  13  17
ATOM     17  C   UNL d   1      -9.532   0.859  -2.586  0.00  0.00     0.417 C 
ATOM     18  F   UNL d   1     -10.347   0.476  -3.613  0.00  0.00    -0.166 F 
ATOM     19  F   UNL d   1      -8.999   2.054  -2.981  0.00  0.00    -0.166 F 
ATOM     20  F   UNL d   1     -10.365   1.157  -1.547  0.00  0.00    -0.166 F 
ENDBRANCH  13  17
ENDBRANCH   8  11
ENDBRANCH   2   5
BRANCH   3  21
ATOM     21  C   UNL d   1      -8.538  -7.718  -6.808  0.00  0.00     0.078 C 
ATOM     22  C   UNL d   1      -9.730  -8.135  -6.356  0.00  0.00    -0.071 C 
ATOM     23  C   UNL d   1     -10.256  -9.523  -6.592  0.00  0.00     0.054 C 
ATOM     24  C   UNL d   1     -10.651  -7.263  -5.551  0.00  0.00     0.054 C 
ATOM     25  C   UNL d   1     -10.631 -10.188  -5.266  0.00  0.00     0.127 C 
ATOM     26  N   UNL d   1     -11.516  -9.314  -4.476  0.00  0.00    -0.380 N 
ATOM     27  C   UNL d   1     -11.032  -7.946  -4.234  0.00  0.00     0.127 C 
BRANCH  26  28
ATOM     28  C   UNL d   1     -12.352  -9.925  -3.535  0.00  0.00     0.030 A 
ATOM     29  C   UNL d   1     -12.575 -11.302  -3.590  0.00  0.00     0.032 A 
ATOM     30  C   UNL d   1     -13.408 -11.911  -2.653  0.00  0.00     0.038 A 
ATOM     31  C   UNL d   1     -14.020 -11.144  -1.660  0.00  0.00     0.103 A 
ATOM     32  C   UNL d   1     -13.798  -9.769  -1.606  0.00  0.00     0.038 A 
ATOM     33  C   UNL d   1     -12.964  -9.159  -2.543  0.00  0.00     0.032 A 
BRANCH  31  34
ATOM     34  N   UNL d   1     -14.869 -11.764  -0.706  0.00  0.00    -0.116 N 
ATOM     35  O   UNL d   1     -15.409 -11.057   0.179  0.00  0.00    -0.532 OA
ATOM     36  O   UNL d   1     -15.057 -13.004  -0.773  0.00  0.00    -0.532 OA
ENDBRANCH  31  34
ENDBRANCH  26  28
ENDBRANCH   3  21
TORSDOF 6
ENDMDL
MODEL 5
REMARK VINA RESULT:      -0.0     11.884     15.949
REMARK  6 active torsions:
REMARK  status: ('A' for Active; 'I' for Inactive)
REMARK    1  A    between atoms: N_8  and  C_18 
REMARK    2  A    between atoms: N_9  and  N_11 
REMARK       I    between atoms: N_9  and  C_22 
REMARK    3  A    between atoms: N_10  and  C_25 
REMARK       I    between atoms: N_11  and  C_27 
REMARK    4  A    between atoms: N_12  and  C_26 
REMARK       I    between atoms: N_12  and  C_27 
REMARK    5  A    between atoms: C_19  and  C_22 
REMARK    6  A    between atoms: C_28  and  C_33 
ROOT
ATOM      1  O   UNL d   1      -1.106  -3.416   3.689  0.00  0.00    -0.267 OA
ATOM      2  N   UNL d   1      -2.244  -2.176   5.289  0.00  0.00    -0.263 N 
ATOM      3  C   UNL d   1      -1.171  -2.892   4.796  0.00  0.00     0.260 C 
ATOM      4  H   UNL d   1      -2.273  -1.749   6.209  0.00  0.00     0.190 HD
ENDROOT
BRANCH   2   5
ATOM      5  N   UNL d   1      -3.353  -2.014   4.497  0.00  0.00    -0.248 N 
ATOM      6  C   UNL d   1      -4.470  -2.820   4.718  0.00  0.00     0.339 C 
ATOM      7  O   UNL d   1      -4.518  -3.678   5.595  0.00  0.00    -0.245 OA
ATOM      8  N   UNL d   1      -5.485  -2.497   3.812  0.00  0.00    -0.308 N 
ATOM      9  H   UNL d   1      -5.280  -1.755   3.147  0.00  0.00     0.170 HD
ATOM     10  H   UNL d   1      -3.310  -1.300   3.779  0.00  0.00     0.192 HD
BRANCH   8  11
ATOM     11  C   UNL d   1      -6.770  -3.077   3.703  0.00  0.00     0.037 A 
ATOM     12  C   UNL d   1      -6.943  -4.262   2.990  0.00  0.00     0.045 A 
ATOM     13  C   UNL d   1      -8.211  -4.834   2.883  0.00  0.00     0.050 A 
ATOM     14  C   UNL d   1      -9.305  -4.220   3.490  0.00  0.00     0.016 A 
ATOM     15  C   UNL d   1      -9.133  -3.035   4.206  0.00  0.00     0.003 A 
ATOM     16  C   UNL d   1      -7.865  -2.464   4.312  0.00  0.00     0.029 A 
BRANCH  13  17
ATOM     17  C   UNL d   1      -8.395  -6.101   2.118  0.00  0.00     0.417 C 
ATOM     18  F   UNL d   1      -7.290  -6.905   2.116  0.00  0.00    -0.166 F 
ATOM     19  F   UNL d   1      -8.695  -5.906   0.800  0.00  0.00    -0.166 F 
ATOM     20  F   UNL d   1      -9.408  -6.871   2.613  0.00  0.00    -0.166 F 
ENDBRANCH  13  17
ENDBRANCH   8  11
ENDBRANCH   2   5
BRANCH   3  21
ATOM     21  C   UNL d   1      -0.066  -2.962   5.785  0.00  0.00     0.078 C 
ATOM     22  C   UNL d   1      -0.003  -3.978   6.658  0.00  0.00    -0.071 C 
ATOM     23  C   UNL d   1       1.087  -4.110   7.684  0.00  0.00     0.054 C 
ATOM     24  C   UNL d   1      -1.028  -5.075   6.713  0.00  0.00     0.054 C 
ATOM     25  C   UNL d   1       0.491  -4.244   9.087  0.00  0.00     0.127 C 
ATOM     26  N   UNL d   1      -0.528  -5.307   9.122  0.00  0.00    -0.380 N 
ATOM     27  C   UNL d   1      -1.605  -5.210   8.125  0.00  0.00     0.127 C 
BRANCH  26  28
ATOM     28  C   UNL d   1      -0.786  -5.912  10.358  0.00  0.00     0.030 A 
ATOM     29  C   UNL d   1       0.110  -5.748  11.415  0.00  0.00     0.032 A 
ATOM     30  C   UNL d   1      -0.146  -6.349  12.646  0.00  0.00     0.038 A 
ATOM     31  C   UNL d   1      -1.299  -7.117  12.821  0.00  0.00     0.103 A 
ATOM     32  C   UNL d   1      -2.194  -7.281  11.764  0.00  0.00     0.038 A 
ATOM     33  C   UNL d   1      -1.938  -6.678  10.533  0.00  0.00     0.032 A 
BRANCH  31  34
ATOM     34  N   UNL d   1      -1.561  -7.731  14.074  0.00  0.00    -0.116 N 
ATOM     35  O   UNL d   1      -2.597  -8.424  14.208  0.00  0.00    -0.532 OA
ATOM     36  O   UNL d   1      -0.747  -7.562  15.015  0.00  0.00    -0.532 OA
ENDBRANCH  31  34
ENDBRANCH  26  28
ENDBRANCH   3  21
TORSDOF 6
ENDMDL
MODEL 6
REMARK VINA RESULT:      -0.0      9.756     12.639
REMARK  6 active torsions:
REMARK  status: ('A' for Active; 'I' for Inactive)
REMARK    1  A    between atoms: N_8  and  C_18 
REMARK    2  A    between atoms: N_9  and  N_11 
REMARK       I    between atoms: N_9  and  C_22 
REMARK    3  A    between atoms: N_10  and  C_25 
REMARK       I    between atoms: N_11  and  C_27 
REMARK    4  A    between atoms: N_12  and  C_26 
REMARK       I    between atoms: N_12  and  C_27 
REMARK    5  A    between atoms: C_19  and  C_22 
REMARK    6  A    between atoms: C_28  and  C_33 
ROOT
ATOM      1  O   UNL d   1      -3.620  -6.510   8.661  0.00  0.00    -0.267 OA
ATOM      2  N   UNL d   1      -5.077  -7.612   7.226  0.00  0.00    -0.263 N 
ATOM      3  C   UNL d   1      -3.834  -7.230   7.691  0.00  0.00     0.260 C 
ATOM      4  H   UNL d   1      -5.227  -8.211   6.421  0.00  0.00     0.190 HD
ENDROOT
BRANCH   2   5
ATOM      5  N   UNL d   1      -6.196  -7.167   7.884  0.00  0.00    -0.248 N 
ATOM      6  C   UNL d   1      -6.913  -6.093   7.358  0.00  0.00     0.339 C 
ATOM      7  O   UNL d   1      -6.594  -5.514   6.321  0.00  0.00    -0.245 OA
ATOM      8  N   UNL d   1      -8.011  -5.799   8.172  0.00  0.00    -0.308 N 
ATOM      9  H   UNL d   1      -8.131  -6.381   8.997  0.00  0.00     0.170 HD
ATOM     10  H   UNL d   1      -6.457  -7.652   8.735  0.00  0.00     0.192 HD
BRANCH   8  11
ATOM     11  C   UNL d   1      -8.982  -4.788   7.990  0.00  0.00     0.037 A 
ATOM     12  C   UNL d   1      -8.716  -3.482   8.400  0.00  0.00     0.045 A 
ATOM     13  C   UNL d   1      -9.674  -2.485   8.220  0.00  0.00     0.050 A 
ATOM     14  C   UNL d   1     -10.900  -2.794   7.630  0.00  0.00     0.016 A 
ATOM     15  C   UNL d   1     -11.167  -4.100   7.219  0.00  0.00     0.003 A 
ATOM     16  C   UNL d   1     -10.208  -5.097   7.399  0.00  0.00     0.029 A 
BRANCH  13  17
ATOM     17  C   UNL d   1      -9.389  -1.089   8.659  0.00  0.00     0.417 C 
ATOM     18  F   UNL d   1      -9.933  -0.136   7.844  0.00  0.00    -0.166 F 
ATOM     19  F   UNL d   1      -8.056  -0.793   8.710  0.00  0.00    -0.166 F 
ATOM     20  F   UNL d   1      -9.870  -0.821   9.908  0.00  0.00    -0.166 F 
ENDBRANCH  13  17
ENDBRANCH   8  11
ENDBRANCH   2   5
BRANCH   3  21
ATOM     21  C   UNL d   1      -2.745  -7.804   6.861  0.00  0.00     0.078 C 
ATOM     22  C   UNL d   1      -2.267  -7.125   5.808  0.00  0.00    -0.071 C 
ATOM     23  C   UNL d   1      -1.167  -7.646   4.927  0.00  0.00     0.054 C 
ATOM     24  C   UNL d   1      -2.797  -5.782   5.391  0.00  0.00     0.054 C 
ATOM     25  C   UNL d   1      -1.610  -7.655   3.463  0.00  0.00     0.127 C 
ATOM     26  N   UNL d   1      -2.149  -6.341   3.072  0.00  0.00    -0.380 N 
ATOM     27  C   UNL d   1      -3.222  -5.799   3.920  0.00  0.00     0.127 C 
BRANCH  26  28
ATOM     28  C   UNL d   1      -2.108  -6.005   1.714  0.00  0.00     0.030 A 
ATOM     29  C   UNL d   1      -2.878  -4.946   1.234  0.00  0.00     0.032 A 
ATOM     30  C   UNL d   1      -2.837  -4.611  -0.119  0.00  0.00     0.038 A 
ATOM     31  C   UNL d   1      -2.026  -5.336  -0.993  0.00  0.00     0.103 A 
ATOM     32  C   UNL d   1      -1.256  -6.395  -0.513  0.00  0.00     0.038 A 
ATOM     33  C   UNL d   1      -1.296  -6.730   0.841  0.00  0.00     0.032 A 
BRANCH  31  34
ATOM     34  N   UNL d   1      -1.984  -4.996  -2.371  0.00  0.00    -0.116 N 
ATOM     35  O   UNL d   1      -2.686  -4.042  -2.783  0.00  0.00    -0.532 OA
ATOM     36  O   UNL d   1      -1.248  -5.662  -3.140  0.00  0.00    -0.532 OA
ENDBRANCH  31  34
ENDBRANCH  26  28
ENDBRANCH   3  21
TORSDOF 6
ENDMDL
MODEL 7
REMARK VINA RESULT:       0.0     12.005     13.860
REMARK  6 active torsions:
REMARK  status: ('A' for Active; 'I' for Inactive)
REMARK    1  A    between atoms: N_8  and  C_18 
REMARK    2  A    between atoms: N_9  and  N_11 
REMARK       I    between atoms: N_9  and  C_22 
REMARK    3  A    between atoms: N_10  and  C_25 
REMARK       I    between atoms: N_11  and  C_27 
REMARK    4  A    between atoms: N_12  and  C_26 
REMARK       I    between atoms: N_12  and  C_27 
REMARK    5  A    between atoms: C_19  and  C_22 
REMARK    6  A    between atoms: C_28  and  C_33 
ROOT
ATOM      1  O   UNL d   1       7.819  -2.216   4.645  0.00  0.00    -0.267 OA
ATOM      2  N   UNL d   1       8.559  -2.514   6.826  0.00  0.00    -0.263 N 
ATOM      3  C   UNL d   1       8.701  -2.489   5.453  0.00  0.00     0.260 C 
ATOM      4  H   UNL d   1       9.305  -2.740   7.475  0.00  0.00     0.190 HD
ENDROOT
BRANCH   2   5
ATOM      5  N   UNL d   1       7.336  -2.212   7.372  0.00  0.00    -0.248 N 
ATOM      6  C   UNL d   1       6.504  -3.249   7.794  0.00  0.00     0.339 C 
ATOM      7  O   UNL d   1       6.809  -4.436   7.704  0.00  0.00    -0.245 OA
ATOM      8  N   UNL d   1       5.315  -2.732   8.316  0.00  0.00    -0.308 N 
ATOM      9  H   UNL d   1       5.223  -1.719   8.317  0.00  0.00     0.170 HD
ATOM     10  H   UNL d   1       7.092  -1.231   7.448  0.00  0.00     0.192 HD
BRANCH   8  11
ATOM     11  C   UNL d   1       4.216  -3.446   8.848  0.00  0.00     0.037 A 
ATOM     12  C   UNL d   1       3.239  -3.959   7.996  0.00  0.00     0.045 A 
ATOM     13  C   UNL d   1       2.156  -4.663   8.522  0.00  0.00     0.050 A 
ATOM     14  C   UNL d   1       2.050  -4.854   9.899  0.00  0.00     0.016 A 
ATOM     15  C   UNL d   1       3.027  -4.341  10.752  0.00  0.00     0.003 A 
ATOM     16  C   UNL d   1       4.111  -3.637  10.226  0.00  0.00     0.029 A 
BRANCH  13  17
ATOM     17  C   UNL d   1       1.111  -5.212   7.610  0.00  0.00     0.417 C 
ATOM     18  F   UNL d   1       1.576  -5.512   6.361  0.00  0.00    -0.166 F 
ATOM     19  F   UNL d   1       0.063  -4.360   7.403  0.00  0.00    -0.166 F 
ATOM     20  F   UNL d   1       0.555  -6.366   8.081  0.00  0.00    -0.166 F 
ENDBRANCH  13  17
ENDBRANCH   8  11
ENDBRANCH   2   5
BRANCH   3  21
ATOM     21  C   UNL d   1      10.085  -2.839   5.045  0.00  0.00     0.078 C 
ATOM     22  C   UNL d   1      10.413  -4.113   4.790  0.00  0.00    -0.071 C 
ATOM     23  C   UNL d   1      11.794  -4.537   4.373  0.00  0.00     0.054 C 
ATOM     24  C   UNL d   1       9.439  -5.251   4.915  0.00  0.00     0.054 C 
ATOM     25  C   UNL d   1      12.327  -5.625   5.307  0.00  0.00     0.127 C 
ATOM     26  N   UNL d   1      11.353  -6.723   5.440  0.00  0.00    -0.380 N 
ATOM     27  C   UNL d   1       9.991  -6.340   5.839  0.00  0.00     0.127 C 
BRANCH  26  28
ATOM     28  C   UNL d   1      11.848  -7.982   5.797  0.00  0.00     0.030 A 
ATOM     29  C   UNL d   1      10.975  -8.969   6.257  0.00  0.00     0.032 A 
ATOM     30  C   UNL d   1      11.467 -10.225   6.612  0.00  0.00     0.038 A 
ATOM     31  C   UNL d   1      12.832 -10.494   6.508  0.00  0.00     0.103 A 
ATOM     32  C   UNL d   1      13.704  -9.508   6.048  0.00  0.00     0.038 A 
ATOM     33  C   UNL d   1      13.212  -8.252   5.692  0.00  0.00     0.032 A 
BRANCH  31  34
ATOM     34  N   UNL d   1      13.334 -11.772   6.870  0.00  0.00    -0.116 N 
ATOM     35  O   UNL d   1      12.531 -12.649   7.271  0.00  0.00    -0.532 OA
ATOM     36  O   UNL d   1      14.567 -11.989   6.782  0.00  0.00    -0.532 OA
ENDBRANCH  31  34
ENDBRANCH  26  28
ENDBRANCH   3  21
TORSDOF 6
ENDMDL
MODEL 8
REMARK VINA RESULT:       0.0     14.486     18.526
REMARK  6 active torsions:
REMARK  status: ('A' for Active; 'I' for Inactive)
REMARK    1  A    between atoms: N_8  and  C_18 
REMARK    2  A    between atoms: N_9  and  N_11 
REMARK       I    between atoms: N_9  and  C_22 
REMARK    3  A    between atoms: N_10  and  C_25 
REMARK       I    between atoms: N_11  and  C_27 
REMARK    4  A    between atoms: N_12  and  C_26 
REMARK       I    between atoms: N_12  and  C_27 
REMARK    5  A    between atoms: C_19  and  C_22 
REMARK    6  A    between atoms: C_28  and  C_33 
ROOT
ATOM      1  O   UNL d   1      -7.639   0.453  -1.983  0.00  0.00    -0.267 OA
ATOM      2  N   UNL d   1      -9.180   1.910  -1.036  0.00  0.00    -0.263 N 
ATOM      3  C   UNL d   1      -8.201   0.937  -1.006  0.00  0.00     0.260 C 
ATOM      4  H   UNL d   1      -9.628   2.297  -0.212  0.00  0.00     0.190 HD
ENDROOT
BRANCH   2   5
ATOM      5  N   UNL d   1      -9.585   2.406  -2.251  0.00  0.00    -0.248 N 
ATOM      6  C   UNL d   1     -10.772   1.940  -2.814  0.00  0.00     0.339 C 
ATOM      7  O   UNL d   1     -11.488   1.098  -2.276  0.00  0.00    -0.245 OA
ATOM      8  N   UNL d   1     -11.003   2.567  -4.041  0.00  0.00    -0.308 N 
ATOM      9  H   UNL d   1     -10.307   3.245  -4.342  0.00  0.00     0.170 HD
ATOM     10  H   UNL d   1      -8.993   3.104  -2.687  0.00  0.00     0.192 HD
BRANCH   8  11
ATOM     11  C   UNL d   1     -12.091   2.376  -4.924  0.00  0.00     0.037 A 
ATOM     12  C   UNL d   1     -12.034   1.379  -5.897  0.00  0.00     0.045 A 
ATOM     13  C   UNL d   1     -13.108   1.191  -6.767  0.00  0.00     0.050 A 
ATOM     14  C   UNL d   1     -14.238   2.000  -6.665  0.00  0.00     0.016 A 
ATOM     15  C   UNL d   1     -14.296   2.998  -5.691  0.00  0.00     0.003 A 
ATOM     16  C   UNL d   1     -13.223   3.185  -4.821  0.00  0.00     0.029 A 
BRANCH  13  17
ATOM     17  C   UNL d   1     -13.046   0.124  -7.808  0.00  0.00     0.417 C 
ATOM     18  F   UNL d   1     -12.094  -0.825  -7.564  0.00  0.00    -0.166 F 
ATOM     19  F   UNL d   1     -12.764   0.597  -9.059  0.00  0.00    -0.166 F 
ATOM     20  F   UNL d   1     -14.221  -0.558  -7.933  0.00  0.00    -0.166 F 
ENDBRANCH  13  17
ENDBRANCH   8  11
ENDBRANCH   2   5
BRANCH   3  21
ATOM     21  C   UNL d   1      -7.891   0.523   0.386  0.00  0.00     0.078 C 
ATOM     22  C   UNL d   1      -8.552  -0.496   0.952  0.00  0.00    -0.071 C 
ATOM     23  C   UNL d   1      -8.288  -0.966   2.356  0.00  0.00     0.054 C 
ATOM     24  C   UNL d   1      -9.639  -1.259   0.249  0.00  0.00     0.054 C 
ATOM     25  C   UNL d   1      -9.581  -0.971   3.173  0.00  0.00     0.127 C 
ATOM     26  N   UNL d   1     -10.645  -1.702   2.462  0.00  0.00    -0.380 N 
ATOM     27  C   UNL d   1     -10.922  -1.271   1.084  0.00  0.00     0.127 C 
BRANCH  26  28
ATOM     28  C   UNL d   1     -11.677  -2.248   3.234  0.00  0.00     0.030 A 
ATOM     29  C   UNL d   1     -12.870  -2.641   2.626  0.00  0.00     0.032 A 
ATOM     30  C   UNL d   1     -13.898  -3.186   3.393  0.00  0.00     0.038 A 
ATOM     31  C   UNL d   1     -13.734  -3.339   4.771  0.00  0.00     0.103 A 
ATOM     32  C   UNL d   1     -12.542  -2.947   5.379  0.00  0.00     0.038 A 
ATOM     33  C   UNL d   1     -11.513  -2.402   4.610  0.00  0.00     0.032 A 
BRANCH  31  34
ATOM     34  N   UNL d   1     -14.781  -3.893   5.554  0.00  0.00    -0.116 N 
ATOM     35  O   UNL d   1     -15.846  -4.237   4.989  0.00  0.00    -0.532 OA
ATOM     36  O   UNL d   1     -14.612  -4.023   6.791  0.00  0.00    -0.532 OA
ENDBRANCH  31  34
ENDBRANCH  26  28
ENDBRANCH   3  21
TORSDOF 6
ENDMDL
MODEL 9
REMARK VINA RESULT:       0.0      7.044     10.743
REMARK  6 active torsions:
REMARK  status: ('A' for Active; 'I' for Inactive)
REMARK    1  A    between atoms: N_8  and  C_18 
REMARK    2  A    between atoms: N_9  and  N_11 
REMARK       I    between atoms: N_9  and  C_22 
REMARK    3  A    between atoms: N_10  and  C_25 
REMARK       I    between atoms: N_11  and  C_27 
REMARK    4  A    between atoms: N_12  and  C_26 
REMARK       I    between atoms: N_12  and  C_27 
REMARK    5  A    between atoms: C_19  and  C_22 
REMARK    6  A    between atoms: C_28  and  C_33 
ROOT
ATOM      1  O   UNL d   1       3.220   3.690  -5.388  0.00  0.00    -0.267 OA
ATOM      2  N   UNL d   1       2.310   1.814  -6.412  0.00  0.00    -0.263 N 
ATOM      3  C   UNL d   1       2.656   2.601  -5.332  0.00  0.00     0.260 C 
ATOM      4  H   UNL d   1       1.841   0.917  -6.340  0.00  0.00     0.190 HD
ENDROOT
BRANCH   2   5
ATOM      5  N   UNL d   1       2.604   2.258  -7.677  0.00  0.00    -0.248 N 
ATOM      6  C   UNL d   1       3.723   1.746  -8.335  0.00  0.00     0.339 C 
ATOM      7  O   UNL d   1       4.470   0.907  -7.838  0.00  0.00    -0.245 OA
ATOM      8  N   UNL d   1       3.843   2.323  -9.602  0.00  0.00    -0.308 N 
ATOM      9  H   UNL d   1       3.134   3.004  -9.860  0.00  0.00     0.170 HD
ATOM     10  H   UNL d   1       1.981   2.946  -8.084  0.00  0.00     0.192 HD
BRANCH   8  11
ATOM     11  C   UNL d   1       4.836   2.076 -10.579  0.00  0.00     0.037 A 
ATOM     12  C   UNL d   1       6.021   2.809 -10.570  0.00  0.00     0.045 A 
ATOM     13  C   UNL d   1       7.000   2.564 -11.534  0.00  0.00     0.050 A 
ATOM     14  C   UNL d   1       6.792   1.586 -12.506  0.00  0.00     0.016 A 
ATOM     15  C   UNL d   1       5.606   0.852 -12.514  0.00  0.00     0.003 A 
ATOM     16  C   UNL d   1       4.628   1.096 -11.551  0.00  0.00     0.029 A 
BRANCH  13  17
ATOM     17  C   UNL d   1       8.268   3.350 -11.525  0.00  0.00     0.417 C 
ATOM     18  F   UNL d   1       8.365   4.245 -12.553  0.00  0.00    -0.166 F 
ATOM     19  F   UNL d   1       9.391   2.577 -11.620  0.00  0.00    -0.166 F 
ATOM     20  F   UNL d   1       8.424   4.083 -10.385  0.00  0.00    -0.166 F 
ENDBRANCH  13  17
ENDBRANCH   8  11
ENDBRANCH   2   5
BRANCH   3  21
ATOM     21  C   UNL d   1       2.261   1.966  -4.049  0.00  0.00     0.078 C 
ATOM     22  C   UNL d   1       3.116   1.162  -3.401  0.00  0.00    -0.071 C 
ATOM     23  C   UNL d   1       2.781   0.487  -2.100  0.00  0.00     0.054 C 
ATOM     24  C   UNL d   1       4.488   0.836  -3.920  0.00  0.00     0.054 C 
ATOM     25  C   UNL d   1       2.989  -1.024  -2.209  0.00  0.00     0.127 C 
ATOM     26  N   UNL d   1       4.329  -1.330  -2.741  0.00  0.00    -0.380 N 
ATOM     27  C   UNL d   1       4.690  -0.679  -4.009  0.00  0.00     0.127 C 
BRANCH  26  28
ATOM     28  C   UNL d   1       4.878  -2.578  -2.426  0.00  0.00     0.030 A 
ATOM     29  C   UNL d   1       4.345  -3.331  -1.379  0.00  0.00     0.032 A 
ATOM     30  C   UNL d   1       4.890  -4.575  -1.066  0.00  0.00     0.038 A 
ATOM     31  C   UNL d   1       5.971  -5.067  -1.800  0.00  0.00     0.103 A 
ATOM     32  C   UNL d   1       6.504  -4.315  -2.846  0.00  0.00     0.038 A 
ATOM     33  C   UNL d   1       5.957  -3.071  -3.159  0.00  0.00     0.032 A 
BRANCH  31  34
ATOM     34  N   UNL d   1       6.528  -6.334  -1.480  0.00  0.00    -0.116 N 
ATOM     35  O   UNL d   1       6.036  -6.993  -0.533  0.00  0.00    -0.532 OA
ATOM     36  O   UNL d   1       7.498  -6.759  -2.154  0.00  0.00    -0.532 OA
ENDBRANCH  31  34
ENDBRANCH  26  28
ENDBRANCH   3  21
TORSDOF 6
ENDMDL
