MODEL 1
REMARK VINA RESULT:      -0.0      0.000      0.000
REMARK  2 active torsions:
REMARK  status: ('A' for Active; 'I' for Inactive)
REMARK    1  A    between atoms: O_1  and  C_7 
REMARK    2  A    between atoms: O_2  and  C_20 
ROOT
ATOM      1  C   UNL d   1      18.285  14.509  13.555  0.00  0.00    -0.014 C 
ATOM      2  C   UNL d   1      18.129  13.960  14.987  0.00  0.00     0.001 C 
ATOM      3  C   UNL d   1      18.739  14.894  16.032  0.00  0.00    -0.001 C 
ATOM      4  C   UNL d   1      17.993  16.262  15.974  0.00  0.00     0.023 C 
ATOM      5  C   UNL d   1      17.651  13.342  12.772  0.00  0.00     0.126 C 
ATOM      6  C   UNL d   1      17.521  15.836  13.466  0.00  0.00     0.013 C 
ATOM      7  C   UNL d   1      18.640  12.526  14.876  0.00  0.00     0.008 C 
ATOM      8  C   UNL d   1      17.993  16.841  14.534  0.00  0.00     0.010 C 
ATOM      9  C   UNL d   1      18.202  12.083  13.468  0.00  0.00     0.033 C 
ATOM     10  C   UNL d   1      18.640  14.332  17.451  0.00  0.00     0.010 C 
ATOM     11  C   UNL d   1      19.750  14.730  13.100  0.00  0.00     0.018 C 
ATOM     12  C   UNL d   1      18.501  17.214  17.055  0.00  0.00    -0.047 A 
ATOM     13  C   UNL d   1      19.390  15.241  18.421  0.00  0.00     0.039 C 
ATOM     14  C   UNL d   1      19.119  16.712  18.220  0.00  0.00    -0.049 A 
ATOM     15  C   UNL d   1      18.288  18.600  16.960  0.00  0.00     0.011 A 
ATOM     16  C   UNL d   1      19.550  17.599  19.223  0.00  0.00     0.044 A 
ATOM     17  C   UNL d   1      18.713  19.470  17.966  0.00  0.00     0.037 A 
ATOM     18  C   UNL d   1      19.348  18.971  19.096  0.00  0.00     0.066 A 
ENDROOT
BRANCH   5  19
ATOM     19  O   UNL d   1      17.971  13.363  11.394  0.00  0.00    -0.395 OA
ATOM     20  H   UNL d   1      17.967  14.293  11.107  0.00  0.00     0.210 HD
ENDBRANCH   5  19
BRANCH  18  21
ATOM     21  O   UNL d   1      19.766  19.815  20.076  0.00  0.00    -0.361 OA
ATOM     22  H   UNL d   1      19.530  20.727  19.829  0.00  0.00     0.217 HD
ENDBRANCH  18  21
TORSDOF 2
ENDMDL
MODEL 2
REMARK VINA RESULT:      -0.0      2.169      2.896
REMARK  2 active torsions:
REMARK  status: ('A' for Active; 'I' for Inactive)
REMARK    1  A    between atoms: O_1  and  C_7 
REMARK    2  A    between atoms: O_2  and  C_20 
ROOT
ATOM      1  C   UNL d   1      16.157  16.728  12.952  0.00  0.00    -0.014 C 
ATOM      2  C   UNL d   1      16.060  15.413  13.750  0.00  0.00     0.001 C 
ATOM      3  C   UNL d   1      17.037  15.378  14.925  0.00  0.00    -0.001 C 
ATOM      4  C   UNL d   1      16.686  16.541  15.901  0.00  0.00     0.023 C 
ATOM      5  C   UNL d   1      15.131  16.423  11.843  0.00  0.00     0.126 C 
ATOM      6  C   UNL d   1      15.774  17.883  13.886  0.00  0.00     0.013 C 
ATOM      7  C   UNL d   1      16.146  14.336  12.672  0.00  0.00     0.008 C 
ATOM      8  C   UNL d   1      16.642  17.904  15.158  0.00  0.00     0.010 C 
ATOM      9  C   UNL d   1      15.414  14.956  11.467  0.00  0.00     0.033 C 
ATOM     10  C   UNL d   1      16.989  14.053  15.689  0.00  0.00     0.010 C 
ATOM     11  C   UNL d   1      17.550  17.012  12.333  0.00  0.00     0.018 C 
ATOM     12  C   UNL d   1      17.576  16.509  17.141  0.00  0.00    -0.047 A 
ATOM     13  C   UNL d   1      18.083  14.030  16.753  0.00  0.00     0.039 C 
ATOM     14  C   UNL d   1      18.192  15.306  17.551  0.00  0.00    -0.049 A 
ATOM     15  C   UNL d   1      17.733  17.645  17.953  0.00  0.00     0.011 A 
ATOM     16  C   UNL d   1      18.981  15.284  18.715  0.00  0.00     0.044 A 
ATOM     17  C   UNL d   1      18.511  17.608  19.112  0.00  0.00     0.037 A 
ATOM     18  C   UNL d   1      19.140  16.429  19.491  0.00  0.00     0.066 A 
ENDROOT
BRANCH   5  19
ATOM     19  O   UNL d   1      15.249  17.283  10.727  0.00  0.00    -0.395 OA
ATOM     20  H   UNL d   1      15.947  16.922  10.153  0.00  0.00     0.210 HD
ENDBRANCH   5  19
BRANCH  18  21
ATOM     21  O   UNL d   1      19.901  16.390  20.617  0.00  0.00    -0.361 OA
ATOM     22  H   UNL d   1      20.295  17.269  20.762  0.00  0.00     0.217 HD
ENDBRANCH  18  21
TORSDOF 2
ENDMDL
MODEL 3
REMARK VINA RESULT:      -0.0      3.824      5.566
REMARK  2 active torsions:
REMARK  status: ('A' for Active; 'I' for Inactive)
REMARK    1  A    between atoms: O_1  and  C_7 
REMARK    2  A    between atoms: O_2  and  C_20 
ROOT
ATOM      1  C   UNL d   1      14.411  11.760  12.433  0.00  0.00    -0.014 C 
ATOM      2  C   UNL d   1      15.839  12.206  12.805  0.00  0.00     0.001 C 
ATOM      3  C   UNL d   1      15.908  12.804  14.210  0.00  0.00    -0.001 C 
ATOM      4  C   UNL d   1      15.479  11.714  15.238  0.00  0.00     0.023 C 
ATOM      5  C   UNL d   1      14.668  11.286  10.989  0.00  0.00     0.126 C 
ATOM      6  C   UNL d   1      13.986  10.656  13.409  0.00  0.00     0.013 C 
ATOM      7  C   UNL d   1      16.271  13.052  11.610  0.00  0.00     0.008 C 
ATOM      8  C   UNL d   1      14.093  11.114  14.876  0.00  0.00     0.010 C 
ATOM      9  C   UNL d   1      15.607  12.360  10.405  0.00  0.00     0.033 C 
ATOM     10  C   UNL d   1      17.310  13.302  14.568  0.00  0.00     0.010 C 
ATOM     11  C   UNL d   1      13.352  12.891  12.448  0.00  0.00     0.018 C 
ATOM     12  C   UNL d   1      15.608  12.224  16.672  0.00  0.00    -0.047 A 
ATOM     13  C   UNL d   1      17.277  14.013  15.919  0.00  0.00     0.039 C 
ATOM     14  C   UNL d   1      16.492  13.281  16.979  0.00  0.00    -0.049 A 
ATOM     15  C   UNL d   1      14.922  11.601  17.729  0.00  0.00     0.011 A 
ATOM     16  C   UNL d   1      16.626  13.717  18.310  0.00  0.00     0.044 A 
ATOM     17  C   UNL d   1      15.071  12.038  19.047  0.00  0.00     0.037 A 
ATOM     18  C   UNL d   1      15.919  13.099  19.338  0.00  0.00     0.066 A 
ENDROOT
BRANCH   5  19
ATOM     19  O   UNL d   1      13.482  11.158  10.230  0.00  0.00    -0.395 OA
ATOM     20  H   UNL d   1      13.482  11.867   9.564  0.00  0.00     0.210 HD
ENDBRANCH   5  19
BRANCH  18  21
ATOM     21  O   UNL d   1      16.063  13.529  20.620  0.00  0.00    -0.361 OA
ATOM     22  H   UNL d   1      16.735  14.233  20.643  0.00  0.00     0.217 HD
ENDBRANCH  18  21
TORSDOF 2
ENDMDL
MODEL 4
REMARK VINA RESULT:       0.0     50.156     50.903
REMARK  2 active torsions:
REMARK  status: ('A' for Active; 'I' for Inactive)
REMARK    1  A    between atoms: O_1  and  C_7 
REMARK    2  A    between atoms: O_2  and  C_20 
ROOT
ATOM      1  C   UNL d   1     -13.888 -13.088  -9.965  0.00  0.00    -0.014 C 
ATOM      2  C   UNL d   1     -12.714 -12.804 -10.923  0.00  0.00     0.001 C 
ATOM      3  C   UNL d   1     -13.155 -12.020 -12.159  0.00  0.00    -0.001 C 
ATOM      4  C   UNL d   1     -13.724 -10.644 -11.700  0.00  0.00     0.023 C 
ATOM      5  C   UNL d   1     -13.145 -13.918  -8.900  0.00  0.00     0.126 C 
ATOM      6  C   UNL d   1     -14.435 -11.744  -9.469  0.00  0.00     0.013 C 
ATOM      7  C   UNL d   1     -12.059 -14.171 -11.098  0.00  0.00     0.008 C 
ATOM      8  C   UNL d   1     -14.840 -10.824 -10.636  0.00  0.00     0.010 C 
ATOM      9  C   UNL d   1     -12.227 -14.844  -9.723  0.00  0.00     0.033 C 
ATOM     10  C   UNL d   1     -12.008 -11.783 -13.143  0.00  0.00     0.010 C 
ATOM     11  C   UNL d   1     -15.045 -13.915 -10.582  0.00  0.00     0.018 C 
ATOM     12  C   UNL d   1     -14.105  -9.776 -12.898  0.00  0.00    -0.047 A 
ATOM     13  C   UNL d   1     -12.544 -11.125 -14.413  0.00  0.00     0.039 C 
ATOM     14  C   UNL d   1     -13.507  -9.992 -14.158  0.00  0.00    -0.049 A 
ATOM     15  C   UNL d   1     -14.988  -8.691 -12.758  0.00  0.00     0.011 A 
ATOM     16  C   UNL d   1     -13.842  -9.162 -15.244  0.00  0.00     0.044 A 
ATOM     17  C   UNL d   1     -15.306  -7.870 -13.841  0.00  0.00     0.037 A 
ATOM     18  C   UNL d   1     -14.737  -8.108 -15.086  0.00  0.00     0.066 A 
ENDROOT
BRANCH   5  19
ATOM     19  O   UNL d   1     -14.017 -14.653  -8.064  0.00  0.00    -0.395 OA
ATOM     20  H   UNL d   1     -13.508 -15.394  -7.690  0.00  0.00     0.210 HD
ENDBRANCH   5  19
BRANCH  18  21
ATOM     21  O   UNL d   1     -15.046  -7.311 -16.143  0.00  0.00    -0.361 OA
ATOM     22  H   UNL d   1     -14.406  -6.580 -16.185  0.00  0.00     0.217 HD
ENDBRANCH  18  21
TORSDOF 2
ENDMDL
MODEL 5
REMARK VINA RESULT:       0.0     49.908     53.260
REMARK  2 active torsions:
REMARK  status: ('A' for Active; 'I' for Inactive)
REMARK    1  A    between atoms: O_1  and  C_7 
REMARK    2  A    between atoms: O_2  and  C_20 
ROOT
ATOM      1  C   UNL d   1     -12.738 -13.098 -12.156  0.00  0.00    -0.014 C 
ATOM      2  C   UNL d   1     -12.032 -13.372 -13.499  0.00  0.00     0.001 C 
ATOM      3  C   UNL d   1     -13.018 -13.449 -14.664  0.00  0.00    -0.001 C 
ATOM      4  C   UNL d   1     -13.745 -12.076 -14.794  0.00  0.00     0.023 C 
ATOM      5  C   UNL d   1     -11.517 -13.147 -11.218  0.00  0.00     0.126 C 
ATOM      6  C   UNL d   1     -13.426 -11.730 -12.249  0.00  0.00     0.013 C 
ATOM      7  C   UNL d   1     -11.140 -14.572 -13.193  0.00  0.00     0.008 C 
ATOM      8  C   UNL d   1     -14.393 -11.655 -13.447  0.00  0.00     0.010 C 
ATOM      9  C   UNL d   1     -10.697 -14.345 -11.735  0.00  0.00     0.033 C 
ATOM     10  C   UNL d   1     -12.333 -13.776 -15.992  0.00  0.00     0.010 C 
ATOM     11  C   UNL d   1     -13.780 -14.167 -11.740  0.00  0.00     0.018 C 
ATOM     12  C   UNL d   1     -14.686 -12.061 -15.996  0.00  0.00    -0.047 A 
ATOM     13  C   UNL d   1     -13.383 -13.979 -17.081  0.00  0.00     0.039 C 
ATOM     14  C   UNL d   1     -14.474 -12.936 -17.083  0.00  0.00    -0.049 A 
ATOM     15  C   UNL d   1     -15.726 -11.120 -16.093  0.00  0.00     0.011 A 
ATOM     16  C   UNL d   1     -15.328 -12.886 -18.200  0.00  0.00     0.044 A 
ATOM     17  C   UNL d   1     -16.562 -11.075 -17.211  0.00  0.00     0.037 A 
ATOM     18  C   UNL d   1     -16.366 -11.961 -18.263  0.00  0.00     0.066 A 
ENDROOT
BRANCH   5  19
ATOM     19  O   UNL d   1     -11.870 -13.301  -9.857  0.00  0.00    -0.395 OA
ATOM     20  H   UNL d   1     -12.807 -13.562  -9.827  0.00  0.00     0.210 HD
ENDBRANCH   5  19
BRANCH  18  21
ATOM     21  O   UNL d   1     -17.180 -11.921 -19.351  0.00  0.00    -0.361 OA
ATOM     22  H   UNL d   1     -17.773 -11.154 -19.274  0.00  0.00     0.217 HD
ENDBRANCH  18  21
TORSDOF 2
ENDMDL
MODEL 6
REMARK VINA RESULT:       0.0     35.301     38.626
REMARK  2 active torsions:
REMARK  status: ('A' for Active; 'I' for Inactive)
REMARK    1  A    between atoms: O_1  and  C_7 
REMARK    2  A    between atoms: O_2  and  C_20 
ROOT
ATOM      1  C   UNL d   1      17.068  -6.364 -12.702  0.00  0.00    -0.014 C 
ATOM      2  C   UNL d   1      17.111  -5.738 -14.109  0.00  0.00     0.001 C 
ATOM      3  C   UNL d   1      16.117  -6.397 -15.065  0.00  0.00    -0.001 C 
ATOM      4  C   UNL d   1      14.676  -6.187 -14.507  0.00  0.00     0.023 C 
ATOM      5  C   UNL d   1      18.193  -5.550 -12.033  0.00  0.00     0.126 C 
ATOM      6  C   UNL d   1      15.669  -6.130 -12.118  0.00  0.00     0.013 C 
ATOM      7  C   UNL d   1      18.598  -5.745 -14.456  0.00  0.00     0.008 C 
ATOM      8  C   UNL d   1      14.564  -6.682 -13.040  0.00  0.00     0.010 C 
ATOM      9  C   UNL d   1      19.296  -5.485 -13.108  0.00  0.00     0.033 C 
ATOM     10  C   UNL d   1      16.192  -5.821 -16.480  0.00  0.00     0.010 C 
ATOM     11  C   UNL d   1      17.396  -7.878 -12.653  0.00  0.00     0.018 C 
ATOM     12  C   UNL d   1      13.626  -6.751 -15.462  0.00  0.00    -0.047 A 
ATOM     13  C   UNL d   1      15.280  -6.616 -17.411  0.00  0.00     0.039 C 
ATOM     14  C   UNL d   1      13.916  -6.906 -16.835  0.00  0.00    -0.049 A 
ATOM     15  C   UNL d   1      12.325  -7.043 -15.020  0.00  0.00     0.011 A 
ATOM     16  C   UNL d   1      12.927  -7.394 -17.709  0.00  0.00     0.044 A 
ATOM     17  C   UNL d   1      11.349  -7.519 -15.900  0.00  0.00     0.037 A 
ATOM     18  C   UNL d   1      11.652  -7.699 -17.243  0.00  0.00     0.066 A 
ENDROOT
BRANCH   5  19
ATOM     19  O   UNL d   1      18.662  -6.136 -10.835  0.00  0.00    -0.395 OA
ATOM     20  H   UNL d   1      19.046  -7.001 -11.063  0.00  0.00     0.210 HD
ENDBRANCH   5  19
BRANCH  18  21
ATOM     21  O   UNL d   1      10.705  -8.164 -18.101  0.00  0.00    -0.361 OA
ATOM     22  H   UNL d   1       9.825  -7.995 -17.722  0.00  0.00     0.217 HD
ENDBRANCH  18  21
TORSDOF 2
ENDMDL
MODEL 7
REMARK VINA RESULT:       0.0     22.653     25.244
REMARK  2 active torsions:
REMARK  status: ('A' for Active; 'I' for Inactive)
REMARK    1  A    between atoms: O_1  and  C_7 
REMARK    2  A    between atoms: O_2  and  C_20 
ROOT
ATOM      1  C   UNL d   1       3.784  -2.572  18.319  0.00  0.00    -0.014 C 
ATOM      2  C   UNL d   1       3.961  -2.052  16.879  0.00  0.00     0.001 C 
ATOM      3  C   UNL d   1       2.735  -2.330  16.010  0.00  0.00    -0.001 C 
ATOM      4  C   UNL d   1       1.510  -1.588  16.624  0.00  0.00     0.023 C 
ATOM      5  C   UNL d   1       5.169  -2.208  18.887  0.00  0.00     0.126 C 
ATOM      6  C   UNL d   1       2.607  -1.822  18.956  0.00  0.00     0.013 C 
ATOM      7  C   UNL d   1       5.317  -2.616  16.462  0.00  0.00     0.008 C 
ATOM      8  C   UNL d   1       1.320  -1.959  18.120  0.00  0.00     0.010 C 
ATOM      9  C   UNL d   1       6.147  -2.588  17.759  0.00  0.00     0.033 C 
ATOM     10  C   UNL d   1       2.923  -1.869  14.563  0.00  0.00     0.010 C 
ATOM     11  C   UNL d   1       3.539  -4.098  18.434  0.00  0.00     0.018 C 
ATOM     12  C   UNL d   1       0.267  -1.757  15.753  0.00  0.00    -0.047 A 
ATOM     13  C   UNL d   1       1.726  -2.303  13.722  0.00  0.00     0.039 C 
ATOM     14  C   UNL d   1       0.390  -2.053  14.378  0.00  0.00    -0.049 A 
ATOM     15  C   UNL d   1      -1.020  -1.536  16.272  0.00  0.00     0.011 A 
ATOM     16  C   UNL d   1      -0.763  -2.171  13.581  0.00  0.00     0.044 A 
ATOM     17  C   UNL d   1      -2.156  -1.648  15.468  0.00  0.00     0.037 A 
ATOM     18  C   UNL d   1      -2.029  -1.971  14.123  0.00  0.00     0.066 A 
ENDROOT
BRANCH   5  19
ATOM     19  O   UNL d   1       5.469  -2.886  20.092  0.00  0.00    -0.395 OA
ATOM     20  H   UNL d   1       5.410  -2.237  20.814  0.00  0.00     0.210 HD
ENDBRANCH   5  19
BRANCH  18  21
ATOM     21  O   UNL d   1      -3.133  -2.083  13.339  0.00  0.00    -0.361 OA
ATOM     22  H   UNL d   1      -3.706  -2.784  13.698  0.00  0.00     0.217 HD
ENDBRANCH  18  21
TORSDOF 2
ENDMDL
MODEL 8
REMARK VINA RESULT:       0.0     30.951     34.744
REMARK  2 active torsions:
REMARK  status: ('A' for Active; 'I' for Inactive)
REMARK    1  A    between atoms: O_1  and  C_7 
REMARK    2  A    between atoms: O_2  and  C_20 
ROOT
ATOM      1  C   UNL d   1      -0.508  -6.364   0.846  0.00  0.00    -0.014 C 
ATOM      2  C   UNL d   1       0.982  -6.357   0.451  0.00  0.00     0.001 C 
ATOM      3  C   UNL d   1       1.367  -7.587  -0.370  0.00  0.00    -0.001 C 
ATOM      4  C   UNL d   1       0.537  -7.586  -1.689  0.00  0.00     0.023 C 
ATOM      5  C   UNL d   1      -0.548  -5.074   1.689  0.00  0.00     0.126 C 
ATOM      6  C   UNL d   1      -1.343  -6.320  -0.440  0.00  0.00     0.013 C 
ATOM      7  C   UNL d   1       1.698  -6.084   1.771  0.00  0.00     0.008 C 
ATOM      8  C   UNL d   1      -0.983  -7.474  -1.396  0.00  0.00     0.010 C 
ATOM      9  C   UNL d   1       0.747  -5.132   2.521  0.00  0.00     0.033 C 
ATOM     10  C   UNL d   1       2.857  -7.618  -0.718  0.00  0.00     0.010 C 
ATOM     11  C   UNL d   1      -0.949  -7.580   1.700  0.00  0.00     0.018 C 
ATOM     12  C   UNL d   1       0.938  -8.748  -2.595  0.00  0.00    -0.047 A 
ATOM     13  C   UNL d   1       3.199  -8.935  -1.410  0.00  0.00     0.039 C 
ATOM     14  C   UNL d   1       2.212  -9.343  -2.476  0.00  0.00    -0.049 A 
ATOM     15  C   UNL d   1       0.089  -9.194  -3.623  0.00  0.00     0.011 A 
ATOM     16  C   UNL d   1       2.580 -10.390  -3.341  0.00  0.00     0.044 A 
ATOM     17  C   UNL d   1       0.470 -10.229  -4.480  0.00  0.00     0.037 A 
ATOM     18  C   UNL d   1       1.713 -10.830  -4.337  0.00  0.00     0.066 A 
ENDROOT
BRANCH   5  19
ATOM     19  O   UNL d   1      -1.696  -4.985   2.510  0.00  0.00    -0.395 OA
ATOM     20  H   UNL d   1      -2.297  -5.705   2.251  0.00  0.00     0.210 HD
ENDBRANCH   5  19
BRANCH  18  21
ATOM     21  O   UNL d   1       2.086 -11.839  -5.169  0.00  0.00    -0.361 OA
ATOM     22  H   UNL d   1       1.585 -11.764  -6.000  0.00  0.00     0.217 HD
ENDBRANCH  18  21
TORSDOF 2
ENDMDL
MODEL 9
REMARK VINA RESULT:       0.0     34.018     38.240
REMARK  2 active torsions:
REMARK  status: ('A' for Active; 'I' for Inactive)
REMARK    1  A    between atoms: O_1  and  C_7 
REMARK    2  A    between atoms: O_2  and  C_20 
ROOT
ATOM      1  C   UNL d   1      -1.153  -4.916  -4.315  0.00  0.00    -0.014 C 
ATOM      2  C   UNL d   1      -0.455  -5.539  -5.540  0.00  0.00     0.001 C 
ATOM      3  C   UNL d   1      -1.348  -6.550  -6.260  0.00  0.00    -0.001 C 
ATOM      4  C   UNL d   1      -2.621  -5.812  -6.775  0.00  0.00     0.023 C 
ATOM      5  C   UNL d   1      -0.002  -4.030  -3.798  0.00  0.00     0.126 C 
ATOM      6  C   UNL d   1      -2.387  -4.149  -4.807  0.00  0.00     0.013 C 
ATOM      7  C   UNL d   1       0.894  -5.993  -4.989  0.00  0.00     0.008 C 
ATOM      8  C   UNL d   1      -3.332  -5.049  -5.626  0.00  0.00     0.010 C 
ATOM      9  C   UNL d   1       1.247  -4.920  -3.941  0.00  0.00     0.033 C 
ATOM     10  C   UNL d   1      -0.645  -7.217  -7.444  0.00  0.00     0.010 C 
ATOM     11  C   UNL d   1      -1.583  -5.931  -3.225  0.00  0.00     0.018 C 
ATOM     12  C   UNL d   1      -3.517  -6.752  -7.579  0.00  0.00    -0.047 A 
ATOM     13  C   UNL d   1      -1.536  -8.311  -8.026  0.00  0.00     0.039 C 
ATOM     14  C   UNL d   1      -2.979  -7.902  -8.196  0.00  0.00    -0.049 A 
ATOM     15  C   UNL d   1      -4.872  -6.452  -7.800  0.00  0.00     0.011 A 
ATOM     16  C   UNL d   1      -3.809  -8.740  -8.963  0.00  0.00     0.044 A 
ATOM     17  C   UNL d   1      -5.684  -7.287  -8.570  0.00  0.00     0.037 A 
ATOM     18  C   UNL d   1      -5.155  -8.434  -9.148  0.00  0.00     0.066 A 
ENDROOT
BRANCH   5  19
ATOM     19  O   UNL d   1      -0.191  -3.601  -2.464  0.00  0.00    -0.395 OA
ATOM     20  H   UNL d   1      -0.345  -2.640  -2.485  0.00  0.00     0.210 HD
ENDBRANCH   5  19
BRANCH  18  21
ATOM     21  O   UNL d   1      -5.943  -9.251  -9.896  0.00  0.00    -0.361 OA
ATOM     22  H   UNL d   1      -5.396  -9.681 -10.576  0.00  0.00     0.217 HD
ENDBRANCH  18  21
TORSDOF 2
ENDMDL
