MODEL 1
REMARK VINA RESULT:      -7.3      0.000      0.000
REMARK  2 active torsions:
REMARK  status: ('A' for Active; 'I' for Inactive)
REMARK    1  A    between atoms: O_1  and  C_7 
REMARK    2  A    between atoms: O_2  and  C_20 
ROOT
ATOM      1  C   UNL d   1       5.518   2.671 -11.951  0.00  0.00    -0.014 C 
ATOM      2  C   UNL d   1       5.408   3.154 -10.492  0.00  0.00     0.001 C 
ATOM      3  C   UNL d   1       4.192   4.055 -10.272  0.00  0.00    -0.001 C 
ATOM      4  C   UNL d   1       2.903   3.239 -10.590  0.00  0.00     0.023 C 
ATOM      5  C   UNL d   1       6.833   1.874 -11.850  0.00  0.00     0.126 C 
ATOM      6  C   UNL d   1       4.276   1.829 -12.270  0.00  0.00     0.013 C 
ATOM      7  C   UNL d   1       6.803   3.694 -10.189  0.00  0.00     0.008 C 
ATOM      8  C   UNL d   1       2.973   2.608 -12.007  0.00  0.00     0.010 C 
ATOM      9  C   UNL d   1       7.742   2.762 -10.978  0.00  0.00     0.033 C 
ATOM     10  C   UNL d   1       4.105   4.586  -8.840  0.00  0.00     0.010 C 
ATOM     11  C   UNL d   1       5.653   3.802 -13.002  0.00  0.00     0.018 C 
ATOM     12  C   UNL d   1       1.646   4.059 -10.309  0.00  0.00    -0.047 A 
ATOM     13  C   UNL d   1       2.958   5.587  -8.728  0.00  0.00     0.039 C 
ATOM     14  C   UNL d   1       1.682   5.135  -9.397  0.00  0.00    -0.049 A 
ATOM     15  C   UNL d   1       0.409   3.711 -10.878  0.00  0.00     0.011 A 
ATOM     16  C   UNL d   1       0.508   5.860  -9.121  0.00  0.00     0.044 A 
ATOM     17  C   UNL d   1      -0.751   4.433 -10.590  0.00  0.00     0.037 A 
ATOM     18  C   UNL d   1      -0.701   5.511  -9.715  0.00  0.00     0.066 A 
ENDROOT
BRANCH   5  19
ATOM     19  O   UNL d   1       7.415   1.606 -13.111  0.00  0.00    -0.395 OA
ATOM     20  H   UNL d   1       8.374   1.509 -12.975  0.00  0.00     0.210 HD
ENDBRANCH   5  19
BRANCH  18  21
ATOM     21  O   UNL d   1      -1.828   6.217  -9.434  0.00  0.00    -0.361 OA
ATOM     22  H   UNL d   1      -2.088   6.724 -10.224  0.00  0.00     0.217 HD
ENDBRANCH  18  21
TORSDOF 2
ENDMDL
MODEL 2
REMARK VINA RESULT:      -7.2     16.831     17.742
REMARK  2 active torsions:
REMARK  status: ('A' for Active; 'I' for Inactive)
REMARK    1  A    between atoms: O_1  and  C_7 
REMARK    2  A    between atoms: O_2  and  C_20 
ROOT
ATOM      1  C   UNL d   1       2.419 -14.361  -3.115  0.00  0.00    -0.014 C 
ATOM      2  C   UNL d   1       1.527 -13.620  -4.130  0.00  0.00     0.001 C 
ATOM      3  C   UNL d   1       1.195 -12.198  -3.676  0.00  0.00    -0.001 C 
ATOM      4  C   UNL d   1       2.524 -11.393  -3.550  0.00  0.00     0.023 C 
ATOM      5  C   UNL d   1       2.505 -15.732  -3.814  0.00  0.00     0.126 C 
ATOM      6  C   UNL d   1       3.750 -13.606  -3.008  0.00  0.00     0.013 C 
ATOM      7  C   UNL d   1       0.391 -14.605  -4.391  0.00  0.00     0.008 C 
ATOM      8  C   UNL d   1       3.541 -12.126  -2.634  0.00  0.00     0.010 C 
ATOM      9  C   UNL d   1       1.071 -15.986  -4.316  0.00  0.00     0.033 C 
ATOM     10  C   UNL d   1       0.264 -11.473  -4.649  0.00  0.00     0.010 C 
ATOM     11  C   UNL d   1       1.804 -14.516  -1.700  0.00  0.00     0.018 C 
ATOM     12  C   UNL d   1       2.254  -9.936  -3.181  0.00  0.00    -0.047 A 
ATOM     13  C   UNL d   1      -0.140 -10.120  -4.069  0.00  0.00     0.039 C 
ATOM     14  C   UNL d   1       1.007  -9.342  -3.471  0.00  0.00    -0.049 A 
ATOM     15  C   UNL d   1       3.262  -9.128  -2.628  0.00  0.00     0.011 A 
ATOM     16  C   UNL d   1       0.785  -7.989  -3.157  0.00  0.00     0.044 A 
ATOM     17  C   UNL d   1       3.032  -7.784  -2.328  0.00  0.00     0.037 A 
ATOM     18  C   UNL d   1       1.792  -7.215  -2.588  0.00  0.00     0.066 A 
ENDROOT
BRANCH   5  19
ATOM     19  O   UNL d   1       2.951 -16.764  -2.956  0.00  0.00    -0.395 OA
ATOM     20  H   UNL d   1       3.131 -16.364  -2.087  0.00  0.00     0.210 HD
ENDBRANCH   5  19
BRANCH  18  21
ATOM     21  O   UNL d   1       1.564  -5.907  -2.295  0.00  0.00    -0.361 OA
ATOM     22  H   UNL d   1       1.741  -5.370  -3.088  0.00  0.00     0.217 HD
ENDBRANCH  18  21
TORSDOF 2
ENDMDL
MODEL 3
REMARK VINA RESULT:      -7.1     18.264     19.560
REMARK  2 active torsions:
REMARK  status: ('A' for Active; 'I' for Inactive)
REMARK    1  A    between atoms: O_1  and  C_7 
REMARK    2  A    between atoms: O_2  and  C_20 
ROOT
ATOM      1  C   UNL d   1      -2.353 -15.151  -4.023  0.00  0.00    -0.014 C 
ATOM      2  C   UNL d   1      -2.069 -14.039  -5.052  0.00  0.00     0.001 C 
ATOM      3  C   UNL d   1      -1.130 -12.967  -4.500  0.00  0.00    -0.001 C 
ATOM      4  C   UNL d   1       0.235 -13.634  -4.147  0.00  0.00     0.023 C 
ATOM      5  C   UNL d   1      -3.346 -15.999  -4.841  0.00  0.00     0.126 C 
ATOM      6  C   UNL d   1      -1.027 -15.847  -3.695  0.00  0.00     0.013 C 
ATOM      7  C   UNL d   1      -3.460 -13.637  -5.535  0.00  0.00     0.008 C 
ATOM      8  C   UNL d   1       0.038 -14.849  -3.201  0.00  0.00     0.010 C 
ATOM      9  C   UNL d   1      -4.254 -14.957  -5.522  0.00  0.00     0.033 C 
ATOM     10  C   UNL d   1      -0.886 -11.830  -5.493  0.00  0.00     0.010 C 
ATOM     11  C   UNL d   1      -3.015 -14.665  -2.708  0.00  0.00     0.018 C 
ATOM     12  C   UNL d   1       1.248 -12.598  -3.667  0.00  0.00    -0.047 A 
ATOM     13  C   UNL d   1      -0.061 -10.730  -4.830  0.00  0.00     0.039 C 
ATOM     14  C   UNL d   1       1.115 -11.241  -4.034  0.00  0.00    -0.049 A 
ATOM     15  C   UNL d   1       2.381 -12.978  -2.927  0.00  0.00     0.011 A 
ATOM     16  C   UNL d   1       2.076 -10.304  -3.613  0.00  0.00     0.044 A 
ATOM     17  C   UNL d   1       3.333 -12.039  -2.523  0.00  0.00     0.037 A 
ATOM     18  C   UNL d   1       3.178 -10.701  -2.862  0.00  0.00     0.066 A 
ENDROOT
BRANCH   5  19
ATOM     19  O   UNL d   1      -4.089 -16.902  -4.046  0.00  0.00    -0.395 OA
ATOM     20  H   UNL d   1      -3.671 -16.930  -3.168  0.00  0.00     0.210 HD
ENDBRANCH   5  19
BRANCH  18  21
ATOM     21  O   UNL d   1       4.101  -9.784  -2.467  0.00  0.00    -0.361 OA
ATOM     22  H   UNL d   1       4.337  -9.953  -1.538  0.00  0.00     0.217 HD
ENDBRANCH  18  21
TORSDOF 2
ENDMDL
MODEL 4
REMARK VINA RESULT:      -7.1     17.118     18.081
REMARK  2 active torsions:
REMARK  status: ('A' for Active; 'I' for Inactive)
REMARK    1  A    between atoms: O_1  and  C_7 
REMARK    2  A    between atoms: O_2  and  C_20 
ROOT
ATOM      1  C   UNL d   1       1.463  -9.303  -3.620  0.00  0.00    -0.014 C 
ATOM      2  C   UNL d   1       2.426 -10.505  -3.686  0.00  0.00     0.001 C 
ATOM      3  C   UNL d   1       1.744 -11.813  -3.285  0.00  0.00    -0.001 C 
ATOM      4  C   UNL d   1       0.581 -12.095  -4.284  0.00  0.00     0.023 C 
ATOM      5  C   UNL d   1       2.444  -8.177  -4.001  0.00  0.00     0.126 C 
ATOM      6  C   UNL d   1       0.331  -9.543  -4.627  0.00  0.00     0.013 C 
ATOM      7  C   UNL d   1       3.645 -10.027  -2.902  0.00  0.00     0.008 C 
ATOM      8  C   UNL d   1      -0.385 -10.883  -4.377  0.00  0.00     0.010 C 
ATOM      9  C   UNL d   1       3.729  -8.523  -3.224  0.00  0.00     0.033 C 
ATOM     10  C   UNL d   1       2.706 -13.003  -3.293  0.00  0.00     0.010 C 
ATOM     11  C   UNL d   1       0.853  -9.035  -2.220  0.00  0.00     0.018 C 
ATOM     12  C   UNL d   1      -0.089 -13.435  -3.988  0.00  0.00    -0.047 A 
ATOM     13  C   UNL d   1       2.001 -14.242  -2.749  0.00  0.00     0.039 C 
ATOM     14  C   UNL d   1       0.611 -14.450  -3.300  0.00  0.00    -0.049 A 
ATOM     15  C   UNL d   1      -1.378 -13.725  -4.468  0.00  0.00     0.011 A 
ATOM     16  C   UNL d   1      -0.006 -15.692  -3.066  0.00  0.00     0.044 A 
ATOM     17  C   UNL d   1      -1.977 -14.965  -4.236  0.00  0.00     0.037 A 
ATOM     18  C   UNL d   1      -1.293 -15.947  -3.531  0.00  0.00     0.066 A 
ENDROOT
BRANCH   5  19
ATOM     19  O   UNL d   1       1.962  -6.889  -3.672  0.00  0.00    -0.395 OA
ATOM     20  H   UNL d   1       2.239  -6.698  -2.759  0.00  0.00     0.210 HD
ENDBRANCH   5  19
BRANCH  18  21
ATOM     21  O   UNL d   1      -1.875 -17.155  -3.301  0.00  0.00    -0.361 OA
ATOM     22  H   UNL d   1      -2.841 -17.058  -3.371  0.00  0.00     0.217 HD
ENDBRANCH  18  21
TORSDOF 2
ENDMDL
MODEL 5
REMARK VINA RESULT:      -6.7     12.562     16.577
REMARK  2 active torsions:
REMARK  status: ('A' for Active; 'I' for Inactive)
REMARK    1  A    between atoms: O_1  and  C_7 
REMARK    2  A    between atoms: O_2  and  C_20 
ROOT
ATOM      1  C   UNL d   1     -11.586  12.492  -9.674  0.00  0.00    -0.014 C 
ATOM      2  C   UNL d   1     -11.797  11.816  -8.305  0.00  0.00     0.001 C 
ATOM      3  C   UNL d   1     -10.547  11.076  -7.829  0.00  0.00    -0.001 C 
ATOM      4  C   UNL d   1      -9.389  12.107  -7.665  0.00  0.00     0.023 C 
ATOM      5  C   UNL d   1     -13.000  13.068  -9.887  0.00  0.00     0.126 C 
ATOM      6  C   UNL d   1     -10.477  13.541  -9.523  0.00  0.00     0.013 C 
ATOM      7  C   UNL d   1     -13.100  11.043  -8.487  0.00  0.00     0.008 C 
ATOM      8  C   UNL d   1      -9.179  12.927  -8.966  0.00  0.00     0.010 C 
ATOM      9  C   UNL d   1     -13.937  11.938  -9.419  0.00  0.00     0.033 C 
ATOM     10  C   UNL d   1     -10.763  10.354  -6.497  0.00  0.00     0.010 C 
ATOM     11  C   UNL d   1     -11.220  11.523 -10.828  0.00  0.00     0.018 C 
ATOM     12  C   UNL d   1      -8.132  11.442  -7.109  0.00  0.00    -0.047 A 
ATOM     13  C   UNL d   1      -9.530   9.523  -6.153  0.00  0.00     0.039 C 
ATOM     14  C   UNL d   1      -8.223  10.247  -6.363  0.00  0.00    -0.049 A 
ATOM     15  C   UNL d   1      -6.869  12.045  -7.247  0.00  0.00     0.011 A 
ATOM     16  C   UNL d   1      -7.060   9.665  -5.827  0.00  0.00     0.044 A 
ATOM     17  C   UNL d   1      -5.723  11.461  -6.703  0.00  0.00     0.037 A 
ATOM     18  C   UNL d   1      -5.817  10.269  -5.997  0.00  0.00     0.066 A 
ENDROOT
BRANCH   5  19
ATOM     19  O   UNL d   1     -13.251  13.436 -11.229  0.00  0.00    -0.395 OA
ATOM     20  H   UNL d   1     -12.894  14.332 -11.358  0.00  0.00     0.210 HD
ENDBRANCH   5  19
BRANCH  18  21
ATOM     21  O   UNL d   1      -4.703   9.697  -5.468  0.00  0.00    -0.361 OA
ATOM     22  H   UNL d   1      -4.424  10.210  -4.690  0.00  0.00     0.217 HD
ENDBRANCH  18  21
TORSDOF 2
ENDMDL
MODEL 6
REMARK VINA RESULT:      -6.7     17.205     18.384
REMARK  2 active torsions:
REMARK  status: ('A' for Active; 'I' for Inactive)
REMARK    1  A    between atoms: O_1  and  C_7 
REMARK    2  A    between atoms: O_2  and  C_20 
ROOT
ATOM      1  C   UNL d   1      -1.385 -14.294  -5.332  0.00  0.00    -0.014 C 
ATOM      2  C   UNL d   1      -0.426 -14.399  -4.130  0.00  0.00     0.001 C 
ATOM      3  C   UNL d   1       0.678 -13.343  -4.179  0.00  0.00    -0.001 C 
ATOM      4  C   UNL d   1       0.021 -11.931  -4.129  0.00  0.00     0.023 C 
ATOM      5  C   UNL d   1      -2.301 -15.495  -5.024  0.00  0.00     0.126 C 
ATOM      6  C   UNL d   1      -2.075 -12.925  -5.276  0.00  0.00     0.013 C 
ATOM      7  C   UNL d   1      -0.048 -15.877  -4.104  0.00  0.00     0.008 C 
ATOM      8  C   UNL d   1      -1.055 -11.771  -5.237  0.00  0.00     0.010 C 
ATOM      9  C   UNL d   1      -1.329 -16.598  -4.563  0.00  0.00     0.033 C 
ATOM     10  C   UNL d   1       1.668 -13.474  -3.021  0.00  0.00     0.010 C 
ATOM     11  C   UNL d   1      -0.713 -14.472  -6.717  0.00  0.00     0.018 C 
ATOM     12  C   UNL d   1       1.078 -10.830  -4.090  0.00  0.00    -0.047 A 
ATOM     13  C   UNL d   1       2.818 -12.488  -3.209  0.00  0.00     0.039 C 
ATOM     14  C   UNL d   1       2.379 -11.102  -3.614  0.00  0.00    -0.049 A 
ATOM     15  C   UNL d   1       0.762  -9.506  -4.441  0.00  0.00     0.011 A 
ATOM     16  C   UNL d   1       3.333 -10.070  -3.551  0.00  0.00     0.044 A 
ATOM     17  C   UNL d   1       1.715  -8.488  -4.366  0.00  0.00     0.037 A 
ATOM     18  C   UNL d   1       3.002  -8.770  -3.926  0.00  0.00     0.066 A 
ENDROOT
BRANCH   5  19
ATOM     19  O   UNL d   1      -3.070 -15.905  -6.138  0.00  0.00    -0.395 OA
ATOM     20  H   UNL d   1      -3.888 -15.379  -6.138  0.00  0.00     0.210 HD
ENDBRANCH   5  19
BRANCH  18  21
ATOM     21  O   UNL d   1       3.933  -7.782  -3.855  0.00  0.00    -0.361 OA
ATOM     22  H   UNL d   1       3.568  -7.041  -3.340  0.00  0.00     0.217 HD
ENDBRANCH  18  21
TORSDOF 2
ENDMDL
MODEL 7
REMARK VINA RESULT:      -6.1     14.114     19.327
REMARK  2 active torsions:
REMARK  status: ('A' for Active; 'I' for Inactive)
REMARK    1  A    between atoms: O_1  and  C_7 
REMARK    2  A    between atoms: O_2  and  C_20 
ROOT
ATOM      1  C   UNL d   1     -13.748  14.125  -4.366  0.00  0.00    -0.014 C 
ATOM      2  C   UNL d   1     -12.611  14.834  -5.128  0.00  0.00     0.001 C 
ATOM      3  C   UNL d   1     -11.357  13.966  -5.232  0.00  0.00    -0.001 C 
ATOM      4  C   UNL d   1     -11.711  12.671  -6.024  0.00  0.00     0.023 C 
ATOM      5  C   UNL d   1     -14.798  15.253  -4.381  0.00  0.00     0.126 C 
ATOM      6  C   UNL d   1     -14.140  12.868  -5.154  0.00  0.00     0.013 C 
ATOM      7  C   UNL d   1     -12.523  16.197  -4.448  0.00  0.00     0.008 C 
ATOM      8  C   UNL d   1     -12.931  11.944  -5.397  0.00  0.00     0.010 C 
ATOM      9  C   UNL d   1     -13.983  16.526  -4.082  0.00  0.00     0.033 C 
ATOM     10  C   UNL d   1     -10.204  14.682  -5.937  0.00  0.00     0.010 C 
ATOM     11  C   UNL d   1     -13.404  13.728  -2.908  0.00  0.00     0.018 C 
ATOM     12  C   UNL d   1     -10.476  11.798  -6.235  0.00  0.00    -0.047 A 
ATOM     13  C   UNL d   1      -8.946  13.819  -5.879  0.00  0.00     0.039 C 
ATOM     14  C   UNL d   1      -9.184  12.365  -6.205  0.00  0.00    -0.049 A 
ATOM     15  C   UNL d   1     -10.597  10.434  -6.553  0.00  0.00     0.011 A 
ATOM     16  C   UNL d   1      -8.058  11.554  -6.437  0.00  0.00     0.044 A 
ATOM     17  C   UNL d   1      -9.471   9.642  -6.789  0.00  0.00     0.037 A 
ATOM     18  C   UNL d   1      -8.201  10.200  -6.726  0.00  0.00     0.066 A 
ENDROOT
BRANCH   5  19
ATOM     19  O   UNL d   1     -15.832  15.058  -3.436  0.00  0.00    -0.395 OA
ATOM     20  H   UNL d   1     -16.616  15.537  -3.758  0.00  0.00     0.210 HD
ENDBRANCH   5  19
BRANCH  18  21
ATOM     21  O   UNL d   1      -7.103   9.431  -6.953  0.00  0.00    -0.361 OA
ATOM     22  H   UNL d   1      -6.839   9.525  -7.885  0.00  0.00     0.217 HD
ENDBRANCH  18  21
TORSDOF 2
ENDMDL
MODEL 8
REMARK VINA RESULT:      -6.0     16.028     19.516
REMARK  2 active torsions:
REMARK  status: ('A' for Active; 'I' for Inactive)
REMARK    1  A    between atoms: O_1  and  C_7 
REMARK    2  A    between atoms: O_2  and  C_20 
ROOT
ATOM      1  C   UNL d   1     -11.476  15.283  -3.640  0.00  0.00    -0.014 C 
ATOM      2  C   UNL d   1     -12.433  14.110  -3.927  0.00  0.00     0.001 C 
ATOM      3  C   UNL d   1     -12.444  13.722  -5.406  0.00  0.00    -0.001 C 
ATOM      4  C   UNL d   1     -11.011  13.263  -5.811  0.00  0.00     0.023 C 
ATOM      5  C   UNL d   1     -11.745  15.460  -2.133  0.00  0.00     0.126 C 
ATOM      6  C   UNL d   1     -10.052  14.836  -3.994  0.00  0.00     0.013 C 
ATOM      7  C   UNL d   1     -13.735  14.540  -3.257  0.00  0.00     0.008 C 
ATOM      8  C   UNL d   1      -9.952  14.340  -5.449  0.00  0.00     0.010 C 
ATOM      9  C   UNL d   1     -13.273  15.311  -2.006  0.00  0.00     0.033 C 
ATOM     10  C   UNL d   1     -13.433  12.596  -5.711  0.00  0.00     0.010 C 
ATOM     11  C   UNL d   1     -11.805  16.592  -4.403  0.00  0.00     0.018 C 
ATOM     12  C   UNL d   1     -10.974  12.782  -7.260  0.00  0.00    -0.047 A 
ATOM     13  C   UNL d   1     -13.498  12.358  -7.217  0.00  0.00     0.039 C 
ATOM     14  C   UNL d   1     -12.149  12.320  -7.892  0.00  0.00    -0.049 A 
ATOM     15  C   UNL d   1      -9.763  12.702  -7.969  0.00  0.00     0.011 A 
ATOM     16  C   UNL d   1     -12.093  11.846  -9.215  0.00  0.00     0.044 A 
ATOM     17  C   UNL d   1      -9.719  12.222  -9.279  0.00  0.00     0.037 A 
ATOM     18  C   UNL d   1     -10.885  11.798  -9.905  0.00  0.00     0.066 A 
ENDROOT
BRANCH   5  19
ATOM     19  O   UNL d   1     -11.296  16.704  -1.633  0.00  0.00    -0.395 OA
ATOM     20  H   UNL d   1     -10.942  16.550  -0.739  0.00  0.00     0.210 HD
ENDBRANCH   5  19
BRANCH  18  21
ATOM     21  O   UNL d   1     -10.846  11.333 -11.182  0.00  0.00    -0.361 OA
ATOM     22  H   UNL d   1     -10.640  10.382 -11.165  0.00  0.00     0.217 HD
ENDBRANCH  18  21
TORSDOF 2
ENDMDL
MODEL 9
REMARK VINA RESULT:      -5.9     22.270     23.837
REMARK  2 active torsions:
REMARK  status: ('A' for Active; 'I' for Inactive)
REMARK    1  A    between atoms: O_1  and  C_7 
REMARK    2  A    between atoms: O_2  and  C_20 
ROOT
ATOM      1  C   UNL d   1       7.254  -5.838  12.247  0.00  0.00    -0.014 C 
ATOM      2  C   UNL d   1       8.363  -5.997  11.189  0.00  0.00     0.001 C 
ATOM      3  C   UNL d   1       8.478  -4.769  10.286  0.00  0.00    -0.001 C 
ATOM      4  C   UNL d   1       8.848  -3.537  11.165  0.00  0.00     0.023 C 
ATOM      5  C   UNL d   1       7.352  -7.221  12.920  0.00  0.00     0.126 C 
ATOM      6  C   UNL d   1       7.621  -4.654  13.150  0.00  0.00     0.013 C 
ATOM      7  C   UNL d   1       8.067  -7.359  10.566  0.00  0.00     0.008 C 
ATOM      8  C   UNL d   1       7.848  -3.364  12.339  0.00  0.00     0.010 C 
ATOM      9  C   UNL d   1       7.531  -8.197  11.741  0.00  0.00     0.033 C 
ATOM     10  C   UNL d   1       9.538  -4.940   9.195  0.00  0.00     0.010 C 
ATOM     11  C   UNL d   1       5.831  -5.619  11.671  0.00  0.00     0.018 C 
ATOM     12  C   UNL d   1       9.062  -2.291  10.308  0.00  0.00    -0.047 A 
ATOM     13  C   UNL d   1       9.502  -3.744   8.247  0.00  0.00     0.039 C 
ATOM     14  C   UNL d   1       9.410  -2.409   8.946  0.00  0.00    -0.049 A 
ATOM     15  C   UNL d   1       9.005  -1.004  10.870  0.00  0.00     0.011 A 
ATOM     16  C   UNL d   1       9.639  -1.253   8.177  0.00  0.00     0.044 A 
ATOM     17  C   UNL d   1       9.242   0.136  10.099  0.00  0.00     0.037 A 
ATOM     18  C   UNL d   1       9.554   0.012   8.751  0.00  0.00     0.066 A 
ENDROOT
BRANCH   5  19
ATOM     19  O   UNL d   1       6.215  -7.541  13.697  0.00  0.00    -0.395 OA
ATOM     20  H   UNL d   1       6.052  -8.495  13.599  0.00  0.00     0.210 HD
ENDBRANCH   5  19
BRANCH  18  21
ATOM     21  O   UNL d   1       9.782   1.120   7.997  0.00  0.00    -0.361 OA
ATOM     22  H   UNL d   1       8.967   1.651   7.960  0.00  0.00     0.217 HD
ENDBRANCH  18  21
TORSDOF 2
ENDMDL
